data/nesta/nesta_case2746wp_mp.m
%%%%%%%%%%%%%%%%%%%%%%%%%%%%%%%%%%%%%%%%%%%%%%%%%%%%%%%%%%%%%%%%%%%%%%%%%%%
%%%%                                                                  %%%%%
%%%%      NICTA Energy System Test Case Archive (NESTA) - v0.3.0      %%%%%
%%%%              Optimal Power Flow - Typical Operation              %%%%%
%%%%                        30 - April - 2015                         %%%%%
%%%%                                                                  %%%%%
%%%%%%%%%%%%%%%%%%%%%%%%%%%%%%%%%%%%%%%%%%%%%%%%%%%%%%%%%%%%%%%%%%%%%%%%%%%
%
%   Power flow data for Polish system - winter 2003-04 evening peak.
%   Please see CASEFORMAT for details on the case file format.
%
%   This case represents the Polish 400, 220 and 110 kV networks during
%   winter 2003-04 evening peak conditions. Multiple centrally
%   dispatchable generators at a bus have not been aggregated.
%   Generators that are not centrally dispatchable in the Polish
%   energy market are given a cost of zero.
%
%   This data was graciously provided by, and is distributed with the
%   permission of, Roman Korab <roman.korab@polsl.pl>.
%
function mpc = nesta_case2746wp_mp
mpc.version = '2';
mpc.baseMVA = 100.0;

%% area data
%	area	refbus
mpc.areas = [
	1	 18;
];

%% bus data
%	bus_i	type	Pd	Qd	Gs	Bs	area	Vm	Va	baseKV	zone	Vmax	Vmin
mpc.bus = [
	1	 1	 0.0	 0.0	 0.0	 0.0	 1	    1.10033	   -0.63375	 220.0	 1	    1.11000	    0.95000;
	2	 1	 0.0	 0.0	 0.0	 0.0	 1	    1.10175	    1.19651	 220.0	 1	    1.11000	    0.95000;
	3	 1	 0.0	 0.0	 0.0	 0.0	 1	    1.06395	  -26.51419	 220.0	 1	    1.11000	    0.95000;
	4	 1	 0.0	 0.0	 0.0	 0.0	 1	    1.08489	   -6.13065	 220.0	 1	    1.11000	    0.95000;
	5	 1	 0.0	 0.0	 0.0	 0.0	 1	    1.08495	   -6.13328	 220.0	 1	    1.11000	    0.95000;
	6	 1	 0.0	 0.0	 0.0	 0.0	 1	    1.05936	  -17.77040	 220.0	 1	    1.11000	    0.95000;
	7	 1	 0.0	 0.0	 0.0	 0.0	 1	    1.05951	  -17.76232	 220.0	 1	    1.11000	    0.95000;
	8	 1	 0.0	 0.0	 0.0	 0.0	 1	    1.02884	  -13.46239	 400.0	 1	    1.05000	    0.95000;
	9	 1	 0.0	 0.0	 0.0	 0.0	 1	    1.02886	  -13.45786	 400.0	 1	    1.05000	    0.95000;
	10	 1	 0.0	 0.0	 0.0	 0.0	 1	    1.04060	  -17.76438	 220.0	 1	    1.11000	    0.95000;
	11	 1	 0.0	 0.0	 0.0	 0.0	 1	    1.04049	  -17.74989	 220.0	 1	    1.11000	    0.95000;
	12	 1	 0.0	 0.0	 0.0	 0.0	 1	    1.04053	  -17.74061	 220.0	 1	    1.11000	    0.95000;
	13	 1	 0.0	 0.0	 0.0	 0.0	 1	    1.02743	  -11.70581	 400.0	 1	    1.05000	    0.95000;
	14	 1	 0.0	 0.0	 0.0	 0.0	 1	    1.02747	  -11.69567	 400.0	 1	    1.05000	    0.95000;
	15	 1	 0.0	 0.0	 0.0	 0.0	 1	    1.02778	  -16.55802	 400.0	 1	    1.05000	    0.95000;
	16	 1	 0.0	 0.0	 0.0	 0.0	 1	    1.02778	  -16.55802	 400.0	 1	    1.05000	    0.95000;
	17	 2	 11.0	 40.0	 0.0	 0.0	 1	    1.10446	  -21.46993	 220.0	 1	    1.11000	    0.95000;
	18	 2	 14.0	 40.0	 0.0	 0.0	 1	    1.10448	  -21.46844	 220.0	 1	    1.11000	    0.95000;
	19	 1	 0.0	 0.0	 0.0	 0.0	 1	    1.08982	   -4.96978	 220.0	 1	    1.11000	    0.95000;
	20	 1	 0.0	 0.0	 0.0	 0.0	 1	    1.08986	   -4.96869	 220.0	 1	    1.11000	    0.95000;
	21	 1	 0.0	 0.0	 0.0	 0.0	 1	    1.06035	  -19.24771	 220.0	 1	    1.11000	    0.95000;
	22	 1	 0.0	 0.0	 0.0	 0.0	 1	    1.06028	  -19.24961	 220.0	 1	    1.11000	    0.95000;
	23	 1	 0.0	 0.0	 0.0	 0.0	 1	    1.04385	  -17.63570	 220.0	 1	    1.11000	    0.95000;
	24	 1	 0.0	 0.0	 0.0	 0.0	 1	    1.09185	   -2.83064	 220.0	 1	    1.11000	    0.95000;
	25	 1	 0.0	 0.0	 0.0	 0.0	 1	    1.01541	  -13.85819	 400.0	 1	    1.05000	    0.95000;
	26	 2	 46.738	 72.054	 0.0	 0.0	 1	    1.11000	   -0.27015	 220.0	 1	    1.11000	    0.95000;
	27	 2	 85.493	 122.06	 0.0	 0.0	 1	    1.11000	    1.45589	 220.0	 1	    1.11000	    0.95000;
	28	 3	 60.0	 110.0	 0.0	 0.0	 1	    1.04604	    0.00000	 400.0	 1	    1.05000	    0.95000;
	29	 2	 60.097	 90.0	 0.0	 0.0	 1	    1.04608	    0.00579	 400.0	 1	    1.05000	    0.95000;
	30	 1	 0.0	 0.0	 0.0	 0.0	 1	    1.04796	  -18.55237	 220.0	 1	    1.11000	    0.95000;
	31	 1	 0.0	 0.0	 0.0	 0.0	 1	    1.04573	   -1.43686	 400.0	 1	    1.05000	    0.95000;
	32	 1	 0.0	 0.0	 0.0	 0.0	 1	    1.03828	  -18.10902	 220.0	 1	    1.11000	    0.95000;
	33	 1	 0.0	 0.0	 0.0	 0.0	 1	    1.09186	   -2.82955	 220.0	 1	    1.11000	    0.95000;
	34	 1	 0.0	 0.0	 0.0	 0.0	 1	    1.09250	   -9.55946	 220.0	 1	    1.11000	    0.95000;
	35	 1	 0.0	 0.0	 0.0	 0.0	 1	    1.08951	  -13.14852	 220.0	 2	    1.11000	    0.95000;
	36	 1	 0.0	 0.0	 0.0	 0.0	 1	    1.09250	  -12.83884	 220.0	 2	    1.11000	    0.95000;
	37	 1	 0.0	 0.0	 0.0	 0.0	 1	    1.09704	  -11.08874	 220.0	 2	    1.11000	    0.95000;
	38	 1	 0.0	 0.0	 0.0	 0.0	 1	    1.09703	  -11.09315	 220.0	 2	    1.11000	    0.95000;
	39	 1	 0.0	 0.0	 0.0	 0.0	 1	    1.07608	  -15.99291	 220.0	 2	    1.11000	    0.95000;
	40	 1	 0.0	 0.0	 0.0	 0.0	 1	    1.10410	   -9.38740	 220.0	 2	    1.11000	    0.95000;
	41	 1	 0.0	 0.0	 0.0	 0.0	 1	    1.10406	   -9.38562	 220.0	 2	    1.11000	    0.95000;
	42	 1	 0.0	 0.0	 0.0	 0.0	 1	    1.04359	   -9.73260	 400.0	 2	    1.05000	    0.95000;
	43	 2	 11.436	 0.0	 0.0	 0.0	 1	    1.11000	   -9.84364	 220.0	 2	    1.11000	    0.95000;
	44	 2	 24.0	 0.0	 0.0	 0.0	 1	    1.11000	   -9.81603	 220.0	 2	    1.11000	    0.95000;
	45	 2	 20.0	 0.0	 0.0	 0.0	 1	    1.04865	  -10.55205	 400.0	 2	    1.05000	    0.95000;
	46	 1	 0.0	 0.0	 0.0	 0.0	 1	    1.04868	  -10.55383	 400.0	 2	    1.05000	    0.95000;
	47	 1	 0.0	 0.0	 0.0	 0.0	 1	    1.10033	   -9.97749	 220.0	 2	    1.11000	    0.95000;
	48	 1	 0.0	 0.0	 0.0	 0.0	 1	    1.03532	  -15.48905	 400.0	 2	    1.05000	    0.95000;
	49	 1	 0.0	 0.0	 0.0	 0.0	 1	    1.03529	  -15.49805	 400.0	 2	    1.05000	    0.95000;
	50	 1	 0.0	 0.0	 0.0	 0.0	 1	    1.05000	  -11.68994	 400.0	 2	    1.05000	    0.95000;
	51	 1	 0.0	 0.0	 0.0	 0.0	 1	    1.08320	  -14.83141	 220.0	 2	    1.11000	    0.95000;
	52	 1	 0.0	 0.0	 0.0	 0.0	 1	    1.08319	  -14.83101	 220.0	 2	    1.11000	    0.95000;
	53	 1	 0.0	 0.0	 0.0	 0.0	 1	    1.04402	  -11.17503	 400.0	 2	    1.05000	    0.95000;
	54	 1	 0.0	 0.0	 0.0	 0.0	 1	    1.04402	  -11.17342	 400.0	 2	    1.05000	    0.95000;
	55	 2	 12.0	 0.0	 0.0	 0.0	 1	    1.10261	   -9.40413	 220.0	 2	    1.11000	    0.95000;
	56	 2	 11.436	 0.0	 0.0	 0.0	 1	    1.10252	   -9.40092	 220.0	 2	    1.11000	    0.95000;
	57	 2	 12.0	 0.0	 0.0	 0.0	 1	    1.04567	  -10.15963	 400.0	 2	    1.05000	    0.95000;
	58	 2	 11.436	 0.0	 0.0	 0.0	 1	    1.04569	  -10.16462	 400.0	 2	    1.05000	    0.95000;
	59	 2	 167.518	 60.0	 0.0	 0.0	 1	    1.10173	  -11.32096	 220.0	 2	    1.11000	    0.95000;
	60	 1	 0.0	 0.0	 0.0	 0.0	 1	    1.10174	  -11.32102	 220.0	 2	    1.11000	    0.95000;
	61	 1	 0.0	 0.0	 0.0	 0.0	 1	    1.10055	  -10.13551	 220.0	 2	    1.11000	    0.95000;
	62	 1	 0.0	 0.0	 0.0	 0.0	 1	    1.10360	  -11.06657	 220.0	 2	    1.11000	    0.95000;
	63	 1	 0.0	 0.0	 0.0	 0.0	 1	    1.10360	  -11.06983	 220.0	 2	    1.11000	    0.95000;
	64	 1	 0.0	 0.0	 0.0	 0.0	 1	    1.04686	  -11.75091	 400.0	 2	    1.05000	    0.95000;
	65	 1	 0.0	 0.0	 0.0	 0.0	 1	    1.04685	  -11.76300	 400.0	 2	    1.05000	    0.95000;
	66	 1	 0.0	 0.0	 0.0	 0.0	 1	    1.08933	  -12.66684	 220.0	 2	    1.11000	    0.95000;
	67	 1	 0.0	 0.0	 0.0	 0.0	 1	    1.09146	  -12.42207	 220.0	 2	    1.11000	    0.95000;
	68	 1	 0.0	 0.0	 0.0	 0.0	 1	    1.08362	  -14.31965	 220.0	 2	    1.11000	    0.95000;
	69	 1	 0.0	 0.0	 0.0	 0.0	 1	    1.10054	   -4.47595	 220.0	 3	    1.11000	    0.95000;
	70	 1	 7.123	 0.0	 0.0	 0.0	 1	    1.09805	   -9.69823	 220.0	 3	    1.11000	    0.95000;
	71	 1	 8.31	 0.933	 0.0	 0.0	 1	    1.09802	   -9.70086	 220.0	 3	    1.11000	    0.95000;
	72	 1	 0.0	 0.0	 0.0	 0.0	 1	    1.10592	   -4.35012	 220.0	 3	    1.11000	    0.95000;
	73	 1	 0.0	 0.0	 0.0	 0.0	 1	    1.10597	   -4.34101	 220.0	 3	    1.11000	    0.95000;
	74	 1	 0.0	 0.0	 0.0	 0.0	 1	    1.10133	   -4.76741	 220.0	 3	    1.11000	    0.95000;
	75	 1	 0.0	 0.0	 0.0	 0.0	 1	    1.10129	   -4.77154	 220.0	 3	    1.11000	    0.95000;
	76	 1	 0.0	 0.0	 0.0	 0.0	 1	    1.10850	   -3.41569	 220.0	 3	    1.11000	    0.95000;
	77	 1	 0.0	 0.0	 0.0	 0.0	 1	    1.10846	   -3.42365	 220.0	 3	    1.11000	    0.95000;
	78	 2	 27.0	 70.0	 0.0	 0.0	 1	    1.11000	   -3.73041	 220.0	 3	    1.11000	    0.95000;
	79	 2	 9.0	 21.0	 0.0	 0.0	 1	    1.10914	   -3.90488	 220.0	 3	    1.11000	    0.95000;
	80	 1	 10.328	 2.61	 0.0	 0.0	 1	    1.09847	   -5.13611	 220.0	 3	    1.11000	    0.95000;
	81	 1	 0.0	 0.0	 0.0	 0.0	 1	    1.09849	   -5.13485	 220.0	 3	    1.11000	    0.95000;
	82	 2	 35.0	 108.0	 0.0	 0.0	 1	    1.04336	   -3.66510	 400.0	 3	    1.05000	    0.95000;
	83	 1	 0.0	 0.0	 0.0	 0.0	 1	    1.10850	   -6.51361	 220.0	 3	    1.11000	    0.95000;
	84	 1	 0.0	 0.0	 0.0	 0.0	 1	    1.10653	   -3.93301	 220.0	 3	    1.11000	    0.95000;
	85	 1	 0.0	 0.0	 0.0	 0.0	 1	    1.10654	   -3.93490	 220.0	 3	    1.11000	    0.95000;
	86	 1	 37.893	 12.351	 0.0	 0.0	 1	    1.10113	   -4.34766	 220.0	 3	    1.11000	    0.95000;
	87	 1	 0.0	 0.0	 0.0	 0.0	 1	    1.10109	   -4.35356	 220.0	 3	    1.11000	    0.95000;
	88	 1	 0.0	 0.0	 0.0	 0.0	 1	    1.10404	   -3.87073	 220.0	 3	    1.11000	    0.95000;
	89	 1	 0.0	 0.0	 0.0	 0.0	 1	    1.10402	   -3.87211	 220.0	 3	    1.11000	    0.95000;
	90	 1	 0.0	 0.0	 0.0	 0.0	 1	    1.10436	   -3.90436	 220.0	 3	    1.11000	    0.95000;
	91	 1	 0.0	 0.0	 0.0	 0.0	 1	    1.10433	   -3.90986	 220.0	 3	    1.11000	    0.95000;
	92	 1	 0.0	 0.0	 0.0	 0.0	 1	    1.04558	   -2.28083	 400.0	 3	    1.05000	    0.95000;
	93	 1	 0.0	 0.0	 0.0	 0.0	 1	    1.04559	   -2.28272	 400.0	 3	    1.05000	    0.95000;
	94	 1	 0.0	 0.0	 0.0	 0.0	 1	    1.10783	   -3.64269	 220.0	 3	    1.11000	    0.95000;
	95	 1	 0.0	 0.0	 0.0	 0.0	 1	    1.10787	   -3.64206	 220.0	 3	    1.11000	    0.95000;
	96	 1	 0.0	 0.0	 0.0	 0.0	 1	    1.10521	   -5.57643	 220.0	 3	    1.11000	    0.95000;
	97	 1	 0.0	 0.0	 0.0	 0.0	 1	    1.10524	   -5.58107	 220.0	 3	    1.11000	    0.95000;
	98	 1	 16.027	 7.274	 0.0	 0.0	 1	    1.10545	   -4.67115	 220.0	 3	    1.11000	    0.95000;
	99	 1	 7.764	 0.258	 0.0	 0.0	 1	    1.10544	   -4.67620	 220.0	 3	    1.11000	    0.95000;
	100	 1	 0.0	 0.0	 0.0	 0.0	 1	    1.09810	   -9.68178	 220.0	 3	    1.11000	    0.95000;
	101	 1	 0.0	 0.0	 0.0	 0.0	 1	    1.09808	   -9.68155	 220.0	 3	    1.11000	    0.95000;
	102	 1	 0.0	 0.0	 0.0	 0.0	 1	    1.10365	   -4.48311	 220.0	 3	    1.11000	    0.95000;
	103	 1	 0.0	 0.0	 0.0	 0.0	 1	    1.10358	   -4.49319	 220.0	 3	    1.11000	    0.95000;
	104	 2	 14.0	 40.0	 0.0	 0.0	 1	    1.11000	   -3.37799	 220.0	 3	    1.11000	    0.95000;
	105	 2	 14.0	 40.0	 0.0	 0.0	 1	    1.11000	   -3.37862	 220.0	 3	    1.11000	    0.95000;
	106	 2	 7.0	 18.0	 0.0	 0.0	 1	    1.10764	   -3.56924	 220.0	 3	    1.11000	    0.95000;
	107	 2	 8.0	 15.0	 0.0	 0.0	 1	    1.10761	   -3.56918	 220.0	 3	    1.11000	    0.95000;
	108	 1	 1.044	 0.0	 0.0	 0.0	 1	    1.10335	   -5.15101	 220.0	 3	    1.11000	    0.95000;
	109	 1	 1.259	 0.0	 0.0	 0.0	 1	    1.10339	   -5.15754	 220.0	 3	    1.11000	    0.95000;
	110	 1	 0.0	 0.0	 0.0	 0.0	 1	    1.10355	   -6.39060	 220.0	 3	    1.11000	    0.95000;
	111	 1	 0.0	 0.0	 0.0	 0.0	 1	    1.09501	   -5.16917	 220.0	 3	    1.11000	    0.95000;
	112	 1	 0.0	 0.0	 0.0	 0.0	 1	    1.09503	   -5.16894	 220.0	 3	    1.11000	    0.95000;
	113	 1	 0.0	 0.0	 0.0	 0.0	 1	    1.09952	   -5.04661	 220.0	 3	    1.11000	    0.95000;
	114	 1	 0.0	 0.0	 0.0	 0.0	 1	    1.09959	   -5.03664	 220.0	 3	    1.11000	    0.95000;
	115	 1	 0.0	 0.0	 0.0	 0.0	 1	    1.04390	   -5.95320	 400.0	 3	    1.05000	    0.95000;
	116	 2	 0.0	 0.0	 0.0	 0.0	 1	    1.10774	   -4.38347	 220.0	 3	    1.11000	    0.95000;
	117	 2	 8.0	 15.0	 0.0	 0.0	 1	    1.10777	   -4.37671	 220.0	 3	    1.11000	    0.95000;
	118	 2	 5.5	 10.0	 0.0	 0.0	 1	    1.10792	   -5.71984	 220.0	 3	    1.11000	    0.95000;
	119	 1	 0.0	 0.0	 0.0	 0.0	 1	    1.10788	   -5.73181	 220.0	 3	    1.11000	    0.95000;
	120	 1	 0.0	 0.0	 0.0	 0.0	 1	    1.04866	  -10.36463	 400.0	 3	    1.05000	    0.95000;
	121	 1	 0.0	 0.0	 0.0	 0.0	 1	    1.04870	  -10.35679	 400.0	 3	    1.05000	    0.95000;
	122	 1	 0.0	 0.0	 0.0	 0.0	 1	    1.04999	   -6.14938	 400.0	 3	    1.05000	    0.95000;
	123	 1	 0.0	 0.0	 0.0	 0.0	 1	    1.05000	   -6.14411	 400.0	 3	    1.05000	    0.95000;
	124	 1	 0.0	 0.0	 0.0	 0.0	 1	    1.10388	   -6.50055	 220.0	 3	    1.11000	    0.95000;
	125	 2	 18.343	 21.865	 0.0	 0.0	 1	    1.10829	   -3.95616	 220.0	 3	    1.11000	    0.95000;
	126	 2	 28.469	 34.292	 0.0	 0.0	 1	    1.10825	   -3.95776	 220.0	 3	    1.11000	    0.95000;
	127	 2	 28.0	 66.0	 0.0	 0.0	 1	    1.04261	   -5.12631	 400.0	 3	    1.05000	    0.95000;
	128	 1	 0.0	 0.0	 0.0	 0.0	 1	    1.04263	   -5.12877	 400.0	 3	    1.05000	    0.95000;
	129	 1	 0.0	 0.0	 0.0	 0.0	 1	    1.10035	   -4.47085	 220.0	 3	    1.11000	    0.95000;
	130	 1	 0.0	 0.0	 0.0	 0.0	 1	    1.10038	   -4.46718	 220.0	 3	    1.11000	    0.95000;
	131	 1	 0.0	 0.0	 0.0	 0.0	 1	    1.10265	   -4.15876	 220.0	 3	    1.11000	    0.95000;
	132	 2	 3.0	 18.0	 0.0	 0.0	 1	    1.11000	   -2.69594	 220.0	 3	    1.11000	    0.95000;
	133	 2	 2.0	 6.0	 0.0	 0.0	 1	    1.11000	   -3.06945	 220.0	 3	    1.11000	    0.95000;
	134	 2	 15.447	 12.88	 0.0	 0.0	 1	    1.11000	  -10.77075	 220.0	 4	    1.11000	    0.95000;
	135	 2	 5.255	 -0.357	 0.0	 0.0	 1	    1.10987	  -10.78026	 220.0	 4	    1.11000	    0.95000;
	136	 1	 0.0	 0.0	 0.0	 0.0	 1	    1.08041	  -12.99142	 220.0	 4	    1.11000	    0.95000;
	137	 1	 0.0	 0.0	 0.0	 0.0	 1	    1.08626	  -11.17497	 220.0	 4	    1.11000	    0.95000;
	138	 1	 0.0	 0.0	 0.0	 0.0	 1	    1.02076	   -9.91337	 400.0	 4	    1.05000	    0.95000;
	139	 1	 0.0	 0.0	 0.0	 0.0	 1	    1.02077	   -9.91481	 400.0	 4	    1.05000	    0.95000;
	140	 1	 0.0	 0.0	 0.0	 0.0	 1	    1.09294	  -21.56550	 220.0	 4	    1.11000	    0.95000;
	141	 1	 0.0	 0.0	 0.0	 0.0	 1	    1.09367	  -27.88901	 220.0	 4	    1.11000	    0.95000;
	142	 1	 0.0	 0.0	 0.0	 0.0	 1	    1.09367	  -27.88901	 220.0	 4	    1.11000	    0.95000;
	143	 1	 0.0	 0.0	 0.0	 0.0	 1	    1.09793	  -24.84786	 220.0	 4	    1.11000	    0.95000;
	144	 1	 0.0	 0.0	 0.0	 0.0	 1	    1.09674	  -13.52650	 220.0	 4	    1.11000	    0.95000;
	145	 1	 0.0	 0.0	 0.0	 0.0	 1	    1.09674	  -13.52650	 220.0	 4	    1.11000	    0.95000;
	146	 2	 10.954	 -0.465	 0.0	 0.0	 1	    1.10966	  -13.59199	 220.0	 4	    1.11000	    0.95000;
	147	 2	 10.812	 -0.465	 0.0	 0.0	 1	    1.10964	  -13.60271	 220.0	 4	    1.11000	    0.95000;
	148	 2	 11.5	 6.86	 0.0	 0.0	 1	    1.11000	  -25.71389	 220.0	 4	    1.11000	    0.95000;
	149	 1	 1.634	 3.038	 0.0	 0.0	 1	    1.11000	  -25.70862	 220.0	 4	    1.11000	    0.95000;
	150	 2	 8.087	 -0.38	 0.0	 0.0	 1	    1.03674	  -22.23443	 400.0	 4	    1.05000	    0.95000;
	151	 2	 16.174	 -0.76	 0.0	 0.0	 1	    1.03677	  -22.23019	 400.0	 4	    1.05000	    0.95000;
	152	 1	 0.0	 0.0	 0.0	 0.0	 1	    1.05772	  -21.67792	 220.0	 4	    1.11000	    0.95000;
	153	 1	 0.0	 0.0	 0.0	 0.0	 1	    1.07456	  -20.28769	 220.0	 4	    1.11000	    0.95000;
	154	 1	 0.0	 0.0	 0.0	 0.0	 1	    1.07464	  -20.28139	 220.0	 4	    1.11000	    0.95000;
	155	 2	 30.555	 -3.555	 0.0	 0.0	 1	    1.11000	   -7.01644	 220.0	 4	    1.11000	    0.95000;
	156	 2	 14.679	 -3.566	 0.0	 0.0	 1	    1.11000	   -8.11383	 220.0	 4	    1.11000	    0.95000;
	157	 1	 0.0	 0.0	 0.0	 0.0	 1	    1.11000	   -7.01644	 220.0	 4	    1.11000	    0.95000;
	158	 1	 0.0	 0.0	 0.0	 0.0	 1	    1.03495	   -6.65617	 400.0	 4	    1.05000	    0.95000;
	159	 2	 7.385	 -1.783	 0.0	 0.0	 1	    1.03500	   -6.65072	 400.0	 4	    1.05000	    0.95000;
	160	 1	 0.0	 0.0	 0.0	 0.0	 1	    1.09201	  -28.09963	 220.0	 4	    1.11000	    0.95000;
	161	 1	 0.0	 0.0	 0.0	 0.0	 1	    1.09201	  -28.09963	 220.0	 4	    1.11000	    0.95000;
	162	 1	 0.0	 0.0	 0.0	 0.0	 1	    1.01775	  -10.89198	 400.0	 4	    1.05000	    0.95000;
	163	 1	 0.0	 0.0	 0.0	 0.0	 1	    1.02489	   -9.35187	 400.0	 4	    1.05000	    0.95000;
	164	 1	 0.0	 0.0	 0.0	 0.0	 1	    1.02489	   -9.35394	 400.0	 4	    1.05000	    0.95000;
	165	 2	 4.293	 -8.964	 0.0	 0.0	 1	    1.11000	  -13.68911	 220.0	 4	    1.11000	    0.95000;
	166	 2	 23.077	 7.176	 0.0	 0.0	 1	    1.11000	  -13.70761	 220.0	 4	    1.11000	    0.95000;
	167	 1	 0.0	 0.0	 0.0	 0.0	 1	    1.11000	  -13.68911	 220.0	 4	    1.11000	    0.95000;
	168	 1	 0.0	 0.0	 0.0	 0.0	 1	    1.08085	  -26.41387	 220.0	 4	    1.11000	    0.95000;
	169	 1	 0.0	 0.0	 0.0	 0.0	 1	    1.09283	  -28.00119	 220.0	 4	    1.11000	    0.95000;
	170	 1	 0.0	 0.0	 0.0	 0.0	 1	    1.08637	  -22.50252	 220.0	 4	    1.11000	    0.95000;
	171	 1	 0.0	 0.0	 0.0	 0.0	 1	    1.08628	  -22.49604	 220.0	 4	    1.11000	    0.95000;
	172	 1	 0.0	 0.0	 0.0	 0.0	 1	    1.00572	  -23.53963	 400.0	 4	    1.05000	    0.95000;
	173	 1	 0.0	 0.0	 0.0	 0.0	 1	    1.00572	  -23.53963	 400.0	 4	    1.05000	    0.95000;
	174	 1	 0.0	 0.0	 0.0	 0.0	 1	    1.04761	  -17.91948	 220.0	 4	    1.11000	    0.95000;
	175	 1	 0.0	 0.0	 0.0	 0.0	 1	    1.04762	  -17.91261	 220.0	 4	    1.11000	    0.95000;
	176	 1	 0.0	 0.0	 0.0	 0.0	 1	    1.08476	  -23.03153	 220.0	 4	    1.11000	    0.95000;
	177	 1	 0.0	 0.0	 0.0	 0.0	 1	    1.08672	  -12.50372	 220.0	 4	    1.11000	    0.95000;
	178	 1	 0.0	 0.0	 0.0	 0.0	 1	    1.08676	  -12.49741	 220.0	 4	    1.11000	    0.95000;
	179	 1	 0.0	 0.0	 0.0	 0.0	 1	    1.08996	  -11.97109	 220.0	 4	    1.11000	    0.95000;
	180	 1	 0.0	 0.0	 0.0	 0.0	 1	    1.08996	  -11.97109	 220.0	 4	    1.11000	    0.95000;
	181	 1	 0.0	 0.0	 0.0	 0.0	 1	    1.04490	  -19.44567	 220.0	 4	    1.11000	    0.95000;
	182	 1	 0.0	 0.0	 0.0	 0.0	 1	    1.04745	  -21.83754	 220.0	 5	    1.11000	    0.95000;
	183	 1	 0.0	 0.0	 0.0	 0.0	 1	    1.11000	  -23.44984	 220.0	 5	    1.11000	    0.95000;
	184	 1	 0.0	 0.0	 0.0	 0.0	 1	    1.03628	  -21.71407	 400.0	 5	    1.05000	    0.95000;
	185	 1	 0.0	 0.0	 0.0	 0.0	 1	    1.03631	  -21.71854	 400.0	 5	    1.05000	    0.95000;
	186	 1	 0.0	 0.0	 0.0	 0.0	 1	    1.01811	  -21.23966	 400.0	 5	    1.05000	    0.95000;
	187	 1	 0.0	 0.0	 0.0	 0.0	 1	    1.01813	  -21.24373	 400.0	 5	    1.05000	    0.95000;
	188	 1	 0.0	 0.0	 0.0	 0.0	 1	    1.02171	  -25.07842	 220.0	 5	    1.11000	    0.95000;
	189	 1	 0.0	 0.0	 0.0	 0.0	 1	    1.02179	  -25.07991	 220.0	 5	    1.11000	    0.95000;
	190	 1	 0.0	 0.0	 0.0	 0.0	 1	    1.07165	  -22.65406	 220.0	 5	    1.11000	    0.95000;
	191	 1	 0.0	 0.0	 0.0	 0.0	 1	    1.07153	  -22.65555	 220.0	 5	    1.11000	    0.95000;
	192	 1	 0.0	 0.0	 0.0	 0.0	 1	    0.99112	  -19.93057	 400.0	 5	    1.05000	    0.95000;
	193	 1	 0.0	 0.0	 0.0	 0.0	 1	    1.05680	  -21.01815	 220.0	 5	    1.11000	    0.95000;
	194	 1	 0.0	 0.0	 0.0	 0.0	 1	    1.05688	  -21.01432	 220.0	 5	    1.11000	    0.95000;
	195	 1	 0.0	 0.0	 0.0	 0.0	 1	    1.00745	  -23.22250	 400.0	 5	    1.05000	    0.95000;
	196	 1	 0.0	 0.0	 0.0	 0.0	 1	    1.00741	  -23.22748	 400.0	 5	    1.05000	    0.95000;
	197	 1	 0.0	 0.0	 0.0	 0.0	 1	    1.06279	  -25.76402	 220.0	 5	    1.11000	    0.95000;
	198	 1	 0.0	 0.0	 0.0	 0.0	 1	    1.06283	  -25.75732	 220.0	 5	    1.11000	    0.95000;
	199	 1	 0.0	 0.0	 0.0	 0.0	 1	    1.03823	  -19.78990	 400.0	 5	    1.05000	    0.95000;
	200	 1	 0.0	 0.0	 0.0	 0.0	 1	    1.03825	  -19.78440	 400.0	 5	    1.05000	    0.95000;
...
];

%% generator data
%	bus	Pg	Qg	Qmax	Qmin	Vg	mBase	status	Pmax	Pmin	Pc1	Pc2	Qc1min	Qc1max	Qc2min	Qc2max	ramp_agc	ramp_10	ramp_30	ramp_q	apf
mpc.gen = [
	17	 140.0	 119.985	 120.0	 -10.0	 1.10446	 233.2	 1	 200.0	 140.0	 0.0	 0.0	 0.0	 0.0	 0.0	 0.0	 0.0	 0.0	 0.0	 0.0	 0.0;
	18	 140.0	 41.02	 120.0	 -10.0	 1.10448	 233.2	 1	 200.0	 140.0	 0.0	 0.0	 0.0	 0.0	 0.0	 0.0	 0.0	 0.0	 0.0	 0.0	 0.0;
	26	 370.0	 100.519	 220.0	 -10.0	 1.11	 430.5	 1	 370.0	 290.0	 0.0	 0.0	 0.0	 0.0	 0.0	 0.0	 0.0	 0.0	 0.0	 0.0	 0.0;
	26	 360.0	 100.519	 220.0	 -10.0	 1.11	 421.9	 1	 360.0	 290.0	 0.0	 0.0	 0.0	 0.0	 0.0	 0.0	 0.0	 0.0	 0.0	 0.0	 0.0;
	27	 360.0	 85.258	 220.0	 -10.0	 1.11	 421.9	 1	 360.0	 290.0	 0.0	 0.0	 0.0	 0.0	 0.0	 0.0	 0.0	 0.0	 0.0	 0.0	 0.0;
	27	 370.0	 85.258	 220.0	 -10.0	 1.11	 430.5	 1	 370.0	 290.0	 0.0	 0.0	 0.0	 0.0	 0.0	 0.0	 0.0	 0.0	 0.0	 0.0	 0.0;
	27	 370.0	 85.258	 220.0	 -10.0	 1.11	 430.5	 1	 370.0	 290.0	 0.0	 0.0	 0.0	 0.0	 0.0	 0.0	 0.0	 0.0	 0.0	 0.0	 0.0;
	28	 370.0	 -10.0	 220.0	 -10.0	 1.04604	 430.5	 1	 370.0	 290.0	 0.0	 0.0	 0.0	 0.0	 0.0	 0.0	 0.0	 0.0	 0.0	 0.0	 0.0;
	28	 370.0	 -10.0	 220.0	 -10.0	 1.04604	 430.5	 1	 370.0	 290.0	 0.0	 0.0	 0.0	 0.0	 0.0	 0.0	 0.0	 0.0	 0.0	 0.0	 0.0;
	28	 370.0	 -10.0	 220.0	 -10.0	 1.04604	 430.5	 1	 370.0	 290.0	 0.0	 0.0	 0.0	 0.0	 0.0	 0.0	 0.0	 0.0	 0.0	 0.0	 0.0;
	29	 370.0	 -10.0	 220.0	 -10.0	 1.04608	 430.5	 1	 370.0	 290.0	 0.0	 0.0	 0.0	 0.0	 0.0	 0.0	 0.0	 0.0	 0.0	 0.0	 0.0;
	29	 370.0	 -10.0	 220.0	 -10.0	 1.04608	 430.5	 1	 370.0	 290.0	 0.0	 0.0	 0.0	 0.0	 0.0	 0.0	 0.0	 0.0	 0.0	 0.0	 0.0;
	29	 370.0	 -10.0	 220.0	 -10.0	 1.04608	 430.5	 1	 370.0	 290.0	 0.0	 0.0	 0.0	 0.0	 0.0	 0.0	 0.0	 0.0	 0.0	 0.0	 0.0;
	43	 215.0	 71.976	 120.0	 -20.0	 1.11	 246.2	 1	 215.0	 135.0	 0.0	 0.0	 0.0	 0.0	 0.0	 0.0	 0.0	 0.0	 0.0	 0.0	 0.0;
	43	 0.0	 0.0	 120.0	 -20.0	 1.11	 275.3	 0	 247.8	 135.0	 0.0	 0.0	 0.0	 0.0	 0.0	 0.0	 0.0	 0.0	 0.0	 0.0	 0.0;
	43	 247.8	 71.976	 120.0	 -20.0	 1.11	 275.3	 1	 247.8	 135.0	 0.0	 0.0	 0.0	 0.0	 0.0	 0.0	 0.0	 0.0	 0.0	 0.0	 0.0;
	44	 225.0	 -8.734	 120.0	 -20.0	 1.11	 255.0	 1	 225.0	 135.0	 0.0	 0.0	 0.0	 0.0	 0.0	 0.0	 0.0	 0.0	 0.0	 0.0	 0.0;
	44	 225.0	 -8.734	 120.0	 -20.0	 1.11	 255.0	 1	 225.0	 135.0	 0.0	 0.0	 0.0	 0.0	 0.0	 0.0	 0.0	 0.0	 0.0	 0.0	 0.0;
	44	 0.0	 0.0	 120.0	 -20.0	 1.11	 255.0	 0	 225.0	 135.0	 0.0	 0.0	 0.0	 0.0	 0.0	 0.0	 0.0	 0.0	 0.0	 0.0	 0.0;
	45	 0.0	 0.0	 350.0	 -40.0	 1.04865	 610.3	 0	 500.0	 350.0	 0.0	 0.0	 0.0	 0.0	 0.0	 0.0	 0.0	 0.0	 0.0	 0.0	 0.0;
	45	 500.0	 21.87	 350.0	 -40.0	 1.04865	 610.3	 1	 500.0	 350.0	 0.0	 0.0	 0.0	 0.0	 0.0	 0.0	 0.0	 0.0	 0.0	 0.0	 0.0;
	55	 130.0	 -20.0	 120.0	 -20.0	 1.10261	 255.0	 1	 225.0	 130.0	 0.0	 0.0	 0.0	 0.0	 0.0	 0.0	 0.0	 0.0	 0.0	 0.0	 0.0;
	56	 130.0	 -20.001	 120.0	 -20.001	 1.10252	 255.0	 1	 225.0	 130.0	 0.0	 0.0	 0.0	 0.0	 0.0	 0.0	 0.0	 0.0	 0.0	 0.0	 0.0;
	56	 130.0	 -20.001	 120.0	 -20.001	 1.10252	 255.0	 1	 225.0	 130.0	 0.0	 0.0	 0.0	 0.0	 0.0	 0.0	 0.0	 0.0	 0.0	 0.0	 0.0;
	57	 130.0	 -20.0	 120.0	 -20.0	 1.04567	 255.0	 1	 225.0	 130.0	 0.0	 0.0	 0.0	 0.0	 0.0	 0.0	 0.0	 0.0	 0.0	 0.0	 0.0;
	58	 0.0	 0.0	 120.0	 -20.0	 1.04569	 255.0	 0	 225.0	 130.0	 0.0	 0.0	 0.0	 0.0	 0.0	 0.0	 0.0	 0.0	 0.0	 0.0	 0.0;
	58	 130.0	 -20.006	 120.0	 -20.006	 1.04569	 255.0	 1	 225.0	 130.0	 0.0	 0.0	 0.0	 0.0	 0.0	 0.0	 0.0	 0.0	 0.0	 0.0	 0.0;
	58	 130.0	 -20.006	 120.0	 -20.006	 1.04569	 255.0	 1	 225.0	 130.0	 0.0	 0.0	 0.0	 0.0	 0.0	 0.0	 0.0	 0.0	 0.0	 0.0	 0.0;
	59	 78.5	 33.64	 33.64	 0.0	 1.10173	 85.4	 1	 78.5	 78.5	 0.0	 0.0	 0.0	 0.0	 0.0	 0.0	 0.0	 0.0	 0.0	 0.0	 0.0;
	78	 225.0	 56.592	 105.0	 5.0	 1.11	 248.3	 1	 225.0	 140.0	 0.0	 0.0	 0.0	 0.0	 0.0	 0.0	 0.0	 0.0	 0.0	 0.0	 0.0;
	78	 225.0	 56.592	 105.0	 5.0	 1.11	 248.3	 1	 225.0	 140.0	 0.0	 0.0	 0.0	 0.0	 0.0	 0.0	 0.0	 0.0	 0.0	 0.0	 0.0;
	79	 0.0	 0.0	 105.0	 5.0	 1.10914	 243.8	 0	 220.0	 140.0	 0.0	 0.0	 0.0	 0.0	 0.0	 0.0	 0.0	 0.0	 0.0	 0.0	 0.0;
	79	 0.0	 0.0	 105.0	 5.0	 1.10914	 248.3	 0	 225.0	 140.0	 0.0	 0.0	 0.0	 0.0	 0.0	 0.0	 0.0	 0.0	 0.0	 0.0	 0.0;
	79	 225.0	 17.18	 105.0	 5.0	 1.10914	 248.3	 1	 225.0	 140.0	 0.0	 0.0	 0.0	 0.0	 0.0	 0.0	 0.0	 0.0	 0.0	 0.0	 0.0;
	82	 380.0	 -20.15	 192.0	 -37.0	 1.04336	 425.8	 1	 380.0	 220.0	 0.0	 0.0	 0.0	 0.0	 0.0	 0.0	 0.0	 0.0	 0.0	 0.0	 0.0;
	82	 370.0	 -2.417	 174.0	 -19.0	 1.04336	 408.9	 1	 370.0	 220.0	 0.0	 0.0	 0.0	 0.0	 0.0	 0.0	 0.0	 0.0	 0.0	 0.0	 0.0;
	104	 225.0	 44.242	 113.0	 -48.0	 1.11	 251.8	 1	 225.0	 134.0	 0.0	 0.0	 0.0	 0.0	 0.0	 0.0	 0.0	 0.0	 0.0	 0.0	 0.0;
	105	 225.0	 9.224	 113.0	 -48.0	 1.11	 251.8	 1	 225.0	 134.0	 0.0	 0.0	 0.0	 0.0	 0.0	 0.0	 0.0	 0.0	 0.0	 0.0	 0.0;
	106	 120.0	 44.733	 90.0	 -5.0	 1.10764	 150.0	 1	 120.0	 79.0	 0.0	 0.0	 0.0	 0.0	 0.0	 0.0	 0.0	 0.0	 0.0	 0.0	 0.0;
	107	 120.0	 21.214	 90.0	 -5.0	 1.10761	 150.0	 1	 120.0	 79.0	 0.0	 0.0	 0.0	 0.0	 0.0	 0.0	 0.0	 0.0	 0.0	 0.0	 0.0;
	116	 0.0	 0.0	 90.0	 -20.0	 1.10774	 150.0	 0	 120.0	 90.0	 0.0	 0.0	 0.0	 0.0	 0.0	 0.0	 0.0	 0.0	 0.0	 0.0	 0.0;
	117	 120.0	 15.944	 90.0	 -20.0	 1.10777	 150.0	 1	 120.0	 70.0	 0.0	 0.0	 0.0	 0.0	 0.0	 0.0	 0.0	 0.0	 0.0	 0.0	 0.0;
	118	 110.0	 33.0	 68.0	 33.0	 1.10792	 129.3	 1	 110.0	 80.0	 0.0	 0.0	 0.0	 0.0	 0.0	 0.0	 0.0	 0.0	 0.0	 0.0	 0.0;
	125	 215.0	 35.014	 113.0	 -11.0	 1.10829	 242.9	 1	 215.0	 160.0	 0.0	 0.0	 0.0	 0.0	 0.0	 0.0	 0.0	 0.0	 0.0	 0.0	 0.0;
	126	 225.0	 83.996	 84.0	 -5.0	 1.10825	 240.2	 1	 225.0	 140.0	 0.0	 0.0	 0.0	 0.0	 0.0	 0.0	 0.0	 0.0	 0.0	 0.0	 0.0;
	126	 0.0	 0.0	 80.0	 -5.0	 1.10825	 229.4	 0	 215.0	 160.0	 0.0	 0.0	 0.0	 0.0	 0.0	 0.0	 0.0	 0.0	 0.0	 0.0	 0.0;
	127	 225.0	 -7.498	 79.0	 -7.498	 1.04261	 238.5	 1	 225.0	 140.0	 0.0	 0.0	 0.0	 0.0	 0.0	 0.0	 0.0	 0.0	 0.0	 0.0	 0.0;
	127	 220.0	 -10.0	 100.0	 -10.0	 1.04261	 241.7	 1	 220.0	 160.0	 0.0	 0.0	 0.0	 0.0	 0.0	 0.0	 0.0	 0.0	 0.0	 0.0	 0.0;
	132	 125.0	 6.109	 40.0	 -38.0	 1.11	 131.2	 1	 125.0	 74.0	 0.0	 0.0	 0.0	 0.0	 0.0	 0.0	 0.0	 0.0	 0.0	 0.0	 0.0;
	132	 125.0	 6.109	 40.0	 -38.0	 1.11	 131.2	 1	 125.0	 74.0	 0.0	 0.0	 0.0	 0.0	 0.0	 0.0	 0.0	 0.0	 0.0	 0.0	 0.0;
	133	 0.0	 0.0	 40.0	 -38.0	 1.11	 131.2	 0	 125.0	 74.0	 0.0	 0.0	 0.0	 0.0	 0.0	 0.0	 0.0	 0.0	 0.0	 0.0	 0.0;
	133	 125.0	 16.399	 40.0	 -38.0	 1.11	 131.2	 1	 125.0	 74.0	 0.0	 0.0	 0.0	 0.0	 0.0	 0.0	 0.0	 0.0	 0.0	 0.0	 0.0;
	134	 0.0	 0.0	 90.0	 0.0	 1.11	 150.0	 0	 120.0	 102.0	 0.0	 0.0	 0.0	 0.0	 0.0	 0.0	 0.0	 0.0	 0.0	 0.0	 0.0;
	134	 120.0	 67.695	 90.0	 0.0	 1.11	 150.0	 1	 120.0	 100.0	 0.0	 0.0	 0.0	 0.0	 0.0	 0.0	 0.0	 0.0	 0.0	 0.0	 0.0;
	135	 0.0	 0.0	 90.0	 0.0	 1.10987	 150.0	 0	 120.0	 102.0	 0.0	 0.0	 0.0	 0.0	 0.0	 0.0	 0.0	 0.0	 0.0	 0.0	 0.0;
	146	 50.0	 12.0	 12.0	 0.0	 1.10966	 51.4	 1	 50.0	 30.0	 0.0	 0.0	 0.0	 0.0	 0.0	 0.0	 0.0	 0.0	 0.0	 0.0	 0.0;
	146	 50.0	 12.0	 12.0	 0.0	 1.10966	 51.4	 1	 50.0	 30.0	 0.0	 0.0	 0.0	 0.0	 0.0	 0.0	 0.0	 0.0	 0.0	 0.0	 0.0;
	147	 0.0	 0.0	 90.0	 0.0	 1.10964	 150.0	 0	 120.0	 90.0	 0.0	 0.0	 0.0	 0.0	 0.0	 0.0	 0.0	 0.0	 0.0	 0.0	 0.0;
	148	 90.0	 19.066	 120.0	 0.0	 1.11	 252.4	 1	 222.0	 90.0	 0.0	 0.0	 0.0	 0.0	 0.0	 0.0	 0.0	 0.0	 0.0	 0.0	 0.0;
	148	 0.0	 0.0	 120.0	 0.0	 1.11	 237.5	 0	 205.0	 135.0	 0.0	 0.0	 0.0	 0.0	 0.0	 0.0	 0.0	 0.0	 0.0	 0.0	 0.0;
	148	 0.0	 0.0	 120.0	 0.0	 1.11	 237.5	 0	 205.0	 135.0	 0.0	 0.0	 0.0	 0.0	 0.0	 0.0	 0.0	 0.0	 0.0	 0.0	 0.0;
	148	 90.0	 19.066	 120.0	 0.0	 1.11	 252.4	 1	 222.0	 90.0	 0.0	 0.0	 0.0	 0.0	 0.0	 0.0	 0.0	 0.0	 0.0	 0.0	 0.0;
	150	 90.0	 0.0	 120.0	 0.0	 1.03674	 252.4	 1	 222.0	 90.0	 0.0	 0.0	 0.0	 0.0	 0.0	 0.0	 0.0	 0.0	 0.0	 0.0	 0.0;
	151	 90.0	 0.0	 120.0	 0.0	 1.03677	 252.4	 1	 222.0	 90.0	 0.0	 0.0	 0.0	 0.0	 0.0	 0.0	 0.0	 0.0	 0.0	 0.0	 0.0;
	151	 90.0	 0.0	 120.0	 0.0	 1.03677	 252.4	 1	 222.0	 90.0	 0.0	 0.0	 0.0	 0.0	 0.0	 0.0	 0.0	 0.0	 0.0	 0.0	 0.0;
	155	 235.0	 3.813	 120.0	 0.0	 1.11	 263.9	 1	 235.0	 94.0	 0.0	 0.0	 0.0	 0.0	 0.0	 0.0	 0.0	 0.0	 0.0	 0.0	 0.0;
	155	 235.0	 3.813	 120.0	 0.0	 1.11	 263.9	 1	 235.0	 94.0	 0.0	 0.0	 0.0	 0.0	 0.0	 0.0	 0.0	 0.0	 0.0	 0.0	 0.0;
	155	 0.0	 0.0	 120.0	 0.0	 1.11	 237.5	 0	 205.0	 130.0	 0.0	 0.0	 0.0	 0.0	 0.0	 0.0	 0.0	 0.0	 0.0	 0.0	 0.0;
	155	 261.0	 3.813	 120.0	 0.0	 1.11	 287.3	 1	 261.0	 104.0	 0.0	 0.0	 0.0	 0.0	 0.0	 0.0	 0.0	 0.0	 0.0	 0.0	 0.0;
	156	 0.0	 0.0	 120.0	 0.0	 1.11	 237.5	 0	 205.0	 130.0	 0.0	 0.0	 0.0	 0.0	 0.0	 0.0	 0.0	 0.0	 0.0	 0.0	 0.0;
	156	 205.0	 9.581	 120.0	 0.0	 1.11	 237.5	 1	 205.0	 130.0	 0.0	 0.0	 0.0	 0.0	 0.0	 0.0	 0.0	 0.0	 0.0	 0.0	 0.0;
	156	 206.0	 9.581	 120.0	 0.0	 1.11	 238.4	 1	 206.0	 120.0	 0.0	 0.0	 0.0	 0.0	 0.0	 0.0	 0.0	 0.0	 0.0	 0.0	 0.0;
	156	 206.0	 9.581	 120.0	 0.0	 1.11	 238.4	 1	 206.0	 120.0	 0.0	 0.0	 0.0	 0.0	 0.0	 0.0	 0.0	 0.0	 0.0	 0.0	 0.0;
	159	 206.0	 120.0	 120.0	 0.0	 1.035	 238.4	 1	 206.0	 120.0	 0.0	 0.0	 0.0	 0.0	 0.0	 0.0	 0.0	 0.0	 0.0	 0.0	 0.0;
	165	 200.0	 4.059	 120.0	 -0.009	 1.11	 233.2	 1	 200.0	 150.0	 0.0	 0.0	 0.0	 0.0	 0.0	 0.0	 0.0	 0.0	 0.0	 0.0	 0.0;
	165	 200.0	 4.059	 120.0	 -0.009	 1.11	 233.2	 1	 200.0	 150.0	 0.0	 0.0	 0.0	 0.0	 0.0	 0.0	 0.0	 0.0	 0.0	 0.0	 0.0;
	166	 200.0	 74.755	 120.0	 0.0	 1.11	 233.2	 1	 200.0	 150.0	 0.0	 0.0	 0.0	 0.0	 0.0	 0.0	 0.0	 0.0	 0.0	 0.0	 0.0;
	166	 200.0	 74.755	 120.0	 0.0	 1.11	 233.2	 1	 200.0	 150.0	 0.0	 0.0	 0.0	 0.0	 0.0	 0.0	 0.0	 0.0	 0.0	 0.0	 0.0;
	205	 179.0	 -36.761	 110.0	 -60.0	 1.02492	 210.1	 1	 179.0	 140.0	 0.0	 0.0	 0.0	 0.0	 0.0	 0.0	 0.0	 0.0	 0.0	 0.0	 0.0;
	205	 179.0	 -36.761	 110.0	 -60.0	 1.02492	 210.1	 1	 179.0	 140.0	 0.0	 0.0	 0.0	 0.0	 0.0	 0.0	 0.0	 0.0	 0.0	 0.0	 0.0;
	205	 0.0	 0.0	 110.0	 -60.0	 1.02492	 210.1	 0	 179.0	 140.0	 0.0	 0.0	 0.0	 0.0	 0.0	 0.0	 0.0	 0.0	 0.0	 0.0	 0.0;
	206	 179.0	 -7.292	 110.0	 -60.0	 1.0249	 210.1	 1	 179.0	 140.0	 0.0	 0.0	 0.0	 0.0	 0.0	 0.0	 0.0	 0.0	 0.0	 0.0	 0.0;
	215	 37.079	 1.506	 20.0	 0.0	 1.10811	 58.5	 1	 37.079	 37.079	 0.0	 0.0	 0.0	 0.0	 0.0	 0.0	 0.0	 0.0	 0.0	 0.0	 0.0;
	215	 33.708	 1.506	 20.0	 0.0	 1.10811	 53.9	 1	 33.708	 33.708	 0.0	 0.0	 0.0	 0.0	 0.0	 0.0	 0.0	 0.0	 0.0	 0.0	 0.0;
	215	 33.708	 1.506	 20.0	 0.0	 1.10811	 53.9	 1	 33.708	 33.708	 0.0	 0.0	 0.0	 0.0	 0.0	 0.0	 0.0	 0.0	 0.0	 0.0	 0.0;
	215	 15.506	 1.506	 20.0	 0.0	 1.10811	 30.5	 1	 15.506	 15.506	 0.0	 0.0	 0.0	 0.0	 0.0	 0.0	 0.0	 0.0	 0.0	 0.0	 0.0;
	239	 4.0	 8.0	 8.0	 0.0	 1.06652	 15.4	 1	 4.0	 4.0	 0.0	 0.0	 0.0	 0.0	 0.0	 0.0	 0.0	 0.0	 0.0	 0.0	 0.0;
	246	 370.0	 88.669	 220.0	 -14.0	 1.07668	 430.5	 1	 370.0	 290.0	 0.0	 0.0	 0.0	 0.0	 0.0	 0.0	 0.0	 0.0	 0.0	 0.0	 0.0;
	291	 2.0	 2.0	 2.0	 0.0	 1.09645	 3.2	 1	 2.0	 2.0	 0.0	 0.0	 0.0	 0.0	 0.0	 0.0	 0.0	 0.0	 0.0	 0.0	 0.0;
	294	 3.0	 2.0	 2.0	 0.0	 1.08127	 4.8	 1	 3.0	 3.0	 0.0	 0.0	 0.0	 0.0	 0.0	 0.0	 0.0	 0.0	 0.0	 0.0	 0.0;
	306	 9.167	 7.0	 7.0	 0.0	 1.09011	 24.0	 1	 9.167	 9.167	 0.0	 0.0	 0.0	 0.0	 0.0	 0.0	 0.0	 0.0	 0.0	 0.0	 0.0;
	306	 16.296	 7.0	 7.0	 0.0	 1.09011	 27.9	 1	 16.296	 16.296	 0.0	 0.0	 0.0	 0.0	 0.0	 0.0	 0.0	 0.0	 0.0	 0.0	 0.0;
	306	 11.204	 7.616	 7.616	 6.0	 1.09011	 31.0	 1	 11.204	 11.204	 0.0	 0.0	 0.0	 0.0	 0.0	 0.0	 0.0	 0.0	 0.0	 0.0	 0.0;
	306	 9.167	 7.0	 7.0	 0.0	 1.09011	 26.9	 1	 9.167	 9.167	 0.0	 0.0	 0.0	 0.0	 0.0	 0.0	 0.0	 0.0	 0.0	 0.0	 0.0;
	306	 9.167	 7.928	 7.928	 0.0	 1.09011	 28.1	 1	 9.167	 9.167	 0.0	 0.0	 0.0	 0.0	 0.0	 0.0	 0.0	 0.0	 0.0	 0.0	 0.0;
	307	 36.5	 15.0	 15.0	 0.0	 1.09693	 57.0	 1	 36.5	 36.5	 0.0	 0.0	 0.0	 0.0	 0.0	 0.0	 0.0	 0.0	 0.0	 0.0	 0.0;
	307	 36.5	 15.0	 15.0	 0.0	 1.09693	 57.0	 1	 36.5	 36.5	 0.0	 0.0	 0.0	 0.0	 0.0	 0.0	 0.0	 0.0	 0.0	 0.0	 0.0;
	308	 32.0	 15.0	 15.0	 0.0	 1.10304	 36.7	 1	 32.0	 32.0	 0.0	 0.0	 0.0	 0.0	 0.0	 0.0	 0.0	 0.0	 0.0	 0.0	 0.0;
	308	 40.0	 17.596	 17.596	 0.0	 1.10304	 57.7	 1	 40.0	 40.0	 0.0	 0.0	 0.0	 0.0	 0.0	 0.0	 0.0	 0.0	 0.0	 0.0	 0.0;
	310	 35.0	 20.0	 20.0	 0.0	 1.10475	 53.9	 1	 35.0	 35.0	 0.0	 0.0	 0.0	 0.0	 0.0	 0.0	 0.0	 0.0	 0.0	 0.0	 0.0;
	310	 75.0	 27.247	 27.247	 0.0	 1.10475	 103.6	 1	 75.0	 75.0	 0.0	 0.0	 0.0	 0.0	 0.0	 0.0	 0.0	 0.0	 0.0	 0.0	 0.0;
	311	 45.0	 40.0	 40.0	 0.0	 1.10495	 64.0	 1	 45.0	 45.0	 0.0	 0.0	 0.0	 0.0	 0.0	 0.0	 0.0	 0.0	 0.0	 0.0	 0.0;
	362	 37.8	 12.0	 12.0	 0.0	 1.10543	 47.8	 1	 37.8	 37.8	 0.0	 0.0	 0.0	 0.0	 0.0	 0.0	 0.0	 0.0	 0.0	 0.0	 0.0;
	363	 37.8	 12.0	 12.0	 0.0	 1.08715	 47.8	 1	 37.8	 37.8	 0.0	 0.0	 0.0	 0.0	 0.0	 0.0	 0.0	 0.0	 0.0	 0.0	 0.0;
	364	 37.8	 9.49	 12.0	 0.0	 1.11585	 47.8	 1	 37.8	 37.8	 0.0	 0.0	 0.0	 0.0	 0.0	 0.0	 0.0	 0.0	 0.0	 0.0	 0.0;
	364	 45.0	 9.49	 12.0	 0.0	 1.11585	 71.0	 1	 45.0	 45.0	 0.0	 0.0	 0.0	 0.0	 0.0	 0.0	 0.0	 0.0	 0.0	 0.0	 0.0;
	365	 37.8	 12.0	 12.0	 0.0	 1.09732	 47.8	 1	 37.8	 37.8	 0.0	 0.0	 0.0	 0.0	 0.0	 0.0	 0.0	 0.0	 0.0	 0.0	 0.0;
	365	 37.8	 12.0	 12.0	 0.0	 1.09732	 47.8	 1	 37.8	 37.8	 0.0	 0.0	 0.0	 0.0	 0.0	 0.0	 0.0	 0.0	 0.0	 0.0	 0.0;
	382	 15.0	 5.172	 10.0	 0.0	 1.11556	 55.9	 1	 55.0	 15.0	 0.0	 0.0	 0.0	 0.0	 0.0	 0.0	 0.0	 0.0	 0.0	 0.0	 0.0;
	382	 120.0	 79.796	 120.0	 -10.0	 1.11556	 255.9	 1	 226.0	 120.0	 0.0	 0.0	 0.0	 0.0	 0.0	 0.0	 0.0	 0.0	 0.0	 0.0	 0.0;
	383	 15.0	 0.0	 10.0	 0.0	 1.11448	 55.9	 1	 55.0	 15.0	 0.0	 0.0	 0.0	 0.0	 0.0	 0.0	 0.0	 0.0	 0.0	 0.0	 0.0;
	386	 3.0	 2.0	 2.0	 0.0	 1.09377	 4.8	 1	 3.0	 3.0	 0.0	 0.0	 0.0	 0.0	 0.0	 0.0	 0.0	 0.0	 0.0	 0.0	 0.0;
	421	 4.0	 4.0	 4.0	 0.0	 1.07899	 7.7	 1	 4.0	 4.0	 0.0	 0.0	 0.0	 0.0	 0.0	 0.0	 0.0	 0.0	 0.0	 0.0	 0.0;
	431	 7.0	 6.034	 8.0	 0.0	 1.10553	 13.6	 1	 7.0	 7.0	 0.0	 0.0	 0.0	 0.0	 0.0	 0.0	 0.0	 0.0	 0.0	 0.0	 0.0;
	440	 2.5	 2.0	 2.0	 0.0	 1.06066	 3.6	 1	 2.5	 2.5	 0.0	 0.0	 0.0	 0.0	 0.0	 0.0	 0.0	 0.0	 0.0	 0.0	 0.0;
	447	 3.5	 8.92	 20.0	 0.0	 1.08852	 21.3	 1	 3.5	 3.5	 0.0	 0.0	 0.0	 0.0	 0.0	 0.0	 0.0	 0.0	 0.0	 0.0	 0.0;
	447	 3.5	 8.92	 20.0	 0.0	 1.08852	 21.3	 1	 3.5	 3.5	 0.0	 0.0	 0.0	 0.0	 0.0	 0.0	 0.0	 0.0	 0.0	 0.0	 0.0;
	463	 0.0	 2.0	 2.0	 0.0	 1.08228	 4.0	 1	 0.0	 0.0	 0.0	 0.0	 0.0	 0.0	 0.0	 0.0	 0.0	 0.0	 0.0	 0.0	 0.0;
	482	 1.4	 0.7	 0.7	 0.0	 1.0504	 1.7	 1	 1.4	 1.4	 0.0	 0.0	 0.0	 0.0	 0.0	 0.0	 0.0	 0.0	 0.0	 0.0	 0.0;
	490	 3.5	 3.0	 3.0	 0.0	 1.08638	 5.3	 1	 3.5	 3.5	 0.0	 0.0	 0.0	 0.0	 0.0	 0.0	 0.0	 0.0	 0.0	 0.0	 0.0;
	522	 0.0	 0.0	 1.0	 0.0	 1.09122	 1.9	 1	 0.0	 0.0	 0.0	 0.0	 0.0	 0.0	 0.0	 0.0	 0.0	 0.0	 0.0	 0.0	 0.0;
	533	 0.5	 1.0	 1.0	 0.0	 1.09641	 1.9	 1	 0.5	 0.5	 0.0	 0.0	 0.0	 0.0	 0.0	 0.0	 0.0	 0.0	 0.0	 0.0	 0.0;
	534	 35.89	 14.0	 14.0	 0.0	 1.09758	 53.9	 1	 35.89	 35.89	 0.0	 0.0	 0.0	 0.0	 0.0	 0.0	 0.0	 0.0	 0.0	 0.0	 0.0;
	534	 22.086	 14.0	 14.0	 0.0	 1.09758	 34.9	 1	 22.086	 22.086	 0.0	 0.0	 0.0	 0.0	 0.0	 0.0	 0.0	 0.0	 0.0	 0.0	 0.0;
	534	 22.086	 14.0	 14.0	 0.0	 1.09758	 34.9	 1	 22.086	 22.086	 0.0	 0.0	 0.0	 0.0	 0.0	 0.0	 0.0	 0.0	 0.0	 0.0	 0.0;
	534	 72.469	 24.001	 24.001	 0.0	 1.09758	 107.7	 1	 72.469	 72.469	 0.0	 0.0	 0.0	 0.0	 0.0	 0.0	 0.0	 0.0	 0.0	 0.0	 0.0;
	534	 72.469	 24.001	 24.001	 0.0	 1.09758	 107.7	 1	 72.469	 72.469	 0.0	 0.0	 0.0	 0.0	 0.0	 0.0	 0.0	 0.0	 0.0	 0.0	 0.0;
	535	 24.573	 17.5	 17.5	 0.0	 1.09254	 36.5	 1	 24.573	 24.573	 0.0	 0.0	 0.0	 0.0	 0.0	 0.0	 0.0	 0.0	 0.0	 0.0	 0.0;
	535	 23.805	 17.5	 17.5	 0.0	 1.09254	 35.6	 1	 23.805	 23.805	 0.0	 0.0	 0.0	 0.0	 0.0	 0.0	 0.0	 0.0	 0.0	 0.0	 0.0;
	535	 95.99	 28.002	 28.002	 0.0	 1.09254	 128.1	 1	 95.99	 95.99	 0.0	 0.0	 0.0	 0.0	 0.0	 0.0	 0.0	 0.0	 0.0	 0.0	 0.0;
	535	 80.631	 28.002	 28.002	 0.0	 1.09254	 108.7	 1	 80.631	 80.631	 0.0	 0.0	 0.0	 0.0	 0.0	 0.0	 0.0	 0.0	 0.0	 0.0	 0.0;
	549	 1.4	 0.7	 0.7	 0.0	 1.06885	 1.7	 1	 1.4	 1.4	 0.0	 0.0	 0.0	 0.0	 0.0	 0.0	 0.0	 0.0	 0.0	 0.0	 0.0;
	557	 25.724	 5.052	 5.052	 0.0	 1.07036	 34.4	 1	 25.724	 25.724	 0.0	 0.0	 0.0	 0.0	 0.0	 0.0	 0.0	 0.0	 0.0	 0.0	 0.0;
	557	 21.184	 5.052	 5.052	 0.0	 1.07036	 28.5	 1	 21.184	 21.184	 0.0	 0.0	 0.0	 0.0	 0.0	 0.0	 0.0	 0.0	 0.0	 0.0	 0.0;
	557	 19.671	 5.0	 5.0	 0.0	 1.07036	 26.5	 1	 19.671	 19.671	 0.0	 0.0	 0.0	 0.0	 0.0	 0.0	 0.0	 0.0	 0.0	 0.0	 0.0;
	557	 22.697	 5.052	 5.052	 0.0	 1.07036	 30.4	 1	 22.697	 22.697	 0.0	 0.0	 0.0	 0.0	 0.0	 0.0	 0.0	 0.0	 0.0	 0.0	 0.0;
	557	 25.724	 5.052	 5.052	 0.0	 1.07036	 34.4	 1	 25.724	 25.724	 0.0	 0.0	 0.0	 0.0	 0.0	 0.0	 0.0	 0.0	 0.0	 0.0	 0.0;
	558	 31.032	 5.064	 5.064	 0.0	 1.06775	 34.4	 1	 31.032	 31.032	 0.0	 0.0	 0.0	 0.0	 0.0	 0.0	 0.0	 0.0	 0.0	 0.0	 0.0;
	558	 31.032	 5.064	 5.064	 0.0	 1.06775	 34.4	 1	 31.032	 31.032	 0.0	 0.0	 0.0	 0.0	 0.0	 0.0	 0.0	 0.0	 0.0	 0.0	 0.0;
	558	 22.817	 5.0	 5.0	 0.0	 1.06775	 26.5	 1	 22.817	 22.817	 0.0	 0.0	 0.0	 0.0	 0.0	 0.0	 0.0	 0.0	 0.0	 0.0	 0.0;
	558	 30.119	 5.064	 5.064	 0.0	 1.06775	 34.4	 1	 30.119	 30.119	 0.0	 0.0	 0.0	 0.0	 0.0	 0.0	 0.0	 0.0	 0.0	 0.0	 0.0;
	594	 2.58	 1.35	 1.35	 0.0	 1.07435	 4.5	 1	 2.58	 2.58	 0.0	 0.0	 0.0	 0.0	 0.0	 0.0	 0.0	 0.0	 0.0	 0.0	 0.0;
	601	 5.05	 2.24	 2.24	 0.0	 1.07009	 5.5	 1	 5.05	 5.05	 0.0	 0.0	 0.0	 0.0	 0.0	 0.0	 0.0	 0.0	 0.0	 0.0	 0.0;
	622	 110.0	 6.11	 30.0	 0.0	 1.08607	 114.0	 1	 110.0	 110.0	 0.0	 0.0	 0.0	 0.0	 0.0	 0.0	 0.0	 0.0	 0.0	 0.0	 0.0;
	622	 0.0	 0.0	 30.0	 0.0	 1.08607	 65.3	 0	 0.0	 0.0	 0.0	 0.0	 0.0	 0.0	 0.0	 0.0	 0.0	 0.0	 0.0	 0.0	 0.0;
	626	 2.8	 0.0	 1.12	 0.0	 1.08589	 3.0	 1	 2.8	 2.8	 0.0	 0.0	 0.0	 0.0	 0.0	 0.0	 0.0	 0.0	 0.0	 0.0	 0.0;
	630	 5.61	 1.855	 3.14	 0.0	 1.0761	 6.4	 1	 5.61	 5.61	 0.0	 0.0	 0.0	 0.0	 0.0	 0.0	 0.0	 0.0	 0.0	 0.0	 0.0;
	631	 6.73	 1.865	 3.14	 0.0	 1.07633	 7.4	 1	 6.73	 6.73	 0.0	 0.0	 0.0	 0.0	 0.0	 0.0	 0.0	 0.0	 0.0	 0.0	 0.0;
	655	 1.23	 0.45	 0.45	 0.0	 1.04764	 1.3	 1	 1.23	 1.23	 0.0	 0.0	 0.0	 0.0	 0.0	 0.0	 0.0	 0.0	 0.0	 0.0	 0.0;
	660	 135.0	 46.76	 120.0	 -20.0	 1.11833	 255.0	 1	 225.0	 135.0	 0.0	 0.0	 0.0	 0.0	 0.0	 0.0	 0.0	 0.0	 0.0	 0.0	 0.0;
	661	 135.0	 36.235	 120.0	 -20.0	 1.11809	 255.0	 1	 225.0	 135.0	 0.0	 0.0	 0.0	 0.0	 0.0	 0.0	 0.0	 0.0	 0.0	 0.0	 0.0;
	667	 1.91	 1.01	 1.01	 0.0	 1.05303	 2.2	 1	 1.91	 1.91	 0.0	 0.0	 0.0	 0.0	 0.0	 0.0	 0.0	 0.0	 0.0	 0.0	 0.0;
	671	 9.53	 0.0	 3.36	 0.0	 1.07809	 10.1	 1	 9.53	 9.53	 0.0	 0.0	 0.0	 0.0	 0.0	 0.0	 0.0	 0.0	 0.0	 0.0	 0.0;
	673	 3.36	 1.119	 1.12	 0.0	 1.08057	 4.4	 1	 3.36	 3.36	 0.0	 0.0	 0.0	 0.0	 0.0	 0.0	 0.0	 0.0	 0.0	 0.0	 0.0;
	681	 190.0	 0.0	 30.0	 0.0	 1.09298	 192.4	 1	 190.0	 190.0	 0.0	 0.0	 0.0	 0.0	 0.0	 0.0	 0.0	 0.0	 0.0	 0.0	 0.0;
	681	 24.998	 0.0	 30.0	 0.0	 1.09298	 77.5	 1	 24.998	 24.998	 0.0	 0.0	 0.0	 0.0	 0.0	 0.0	 0.0	 0.0	 0.0	 0.0	 0.0;
	687	 11.21	 0.0	 5.61	 0.0	 1.08779	 12.5	 1	 11.21	 11.21	 0.0	 0.0	 0.0	 0.0	 0.0	 0.0	 0.0	 0.0	 0.0	 0.0	 0.0;
	699	 6.73	 0.007	 3.36	 0.0	 1.08682	 7.5	 1	 6.73	 6.73	 0.0	 0.0	 0.0	 0.0	 0.0	 0.0	 0.0	 0.0	 0.0	 0.0	 0.0;
	702	 1.12	 0.436	 1.12	 0.0	 1.08313	 1.6	 1	 1.12	 1.12	 0.0	 0.0	 0.0	 0.0	 0.0	 0.0	 0.0	 0.0	 0.0	 0.0	 0.0;
	712	 10.0	 4.0	 4.0	 0.0	 1.08211	 10.8	 1	 10.0	 10.0	 0.0	 0.0	 0.0	 0.0	 0.0	 0.0	 0.0	 0.0	 0.0	 0.0	 0.0;
	718	 1.57	 1.12	 1.12	 0.0	 1.04709	 1.9	 1	 1.57	 1.57	 0.0	 0.0	 0.0	 0.0	 0.0	 0.0	 0.0	 0.0	 0.0	 0.0	 0.0;
	722	 2.8	 1.12	 1.12	 0.0	 1.07263	 3.0	 1	 2.8	 2.8	 0.0	 0.0	 0.0	 0.0	 0.0	 0.0	 0.0	 0.0	 0.0	 0.0	 0.0;
	731	 1.68	 0.56	 0.56	 0.0	 1.07795	 4.3	 1	 1.68	 1.68	 0.0	 0.0	 0.0	 0.0	 0.0	 0.0	 0.0	 0.0	 0.0	 0.0	 0.0;
	736	 130.0	 -2.068	 120.0	 -20.0	 1.09295	 255.0	 1	 225.0	 130.0	 0.0	 0.0	 0.0	 0.0	 0.0	 0.0	 0.0	 0.0	 0.0	 0.0	 0.0;
	740	 2.24	 0.0	 0.0	 0.0	 1.09368	 4.3	 1	 2.24	 2.24	 0.0	 0.0	 0.0	 0.0	 0.0	 0.0	 0.0	 0.0	 0.0	 0.0	 0.0;
	747	 5.83	 0.988	 3.36	 0.0	 1.06166	 6.7	 1	 5.83	 5.83	 0.0	 0.0	 0.0	 0.0	 0.0	 0.0	 0.0	 0.0	 0.0	 0.0	 0.0;
	759	 90.0	 0.0	 30.0	 0.0	 1.08448	 105.2	 1	 90.0	 90.0	 0.0	 0.0	 0.0	 0.0	 0.0	 0.0	 0.0	 0.0	 0.0	 0.0	 0.0;
	760	 0.0	 0.0	 0.0	 0.0	 1.07966	 1.3	 0	 0.0	 0.0	 0.0	 0.0	 0.0	 0.0	 0.0	 0.0	 0.0	 0.0	 0.0	 0.0	 0.0;
	778	 12.34	 4.996	 30.0	 0.0	 1.07387	 32.4	 1	 12.34	 12.34	 0.0	 0.0	 0.0	 0.0	 0.0	 0.0	 0.0	 0.0	 0.0	 0.0	 0.0;
	780	 1.68	 0.115	 0.9	 0.0	 1.08603	 1.9	 1	 1.68	 1.68	 0.0	 0.0	 0.0	 0.0	 0.0	 0.0	 0.0	 0.0	 0.0	 0.0	 0.0;
	783	 6.0	 0.0	 3.0	 0.0	 1.08576	 6.7	 1	 6.0	 6.0	 0.0	 0.0	 0.0	 0.0	 0.0	 0.0	 0.0	 0.0	 0.0	 0.0	 0.0;
	788	 2.0	 1.0	 1.0	 0.0	 1.06597	 95.9	 1	 2.0	 2.0	 0.0	 0.0	 0.0	 0.0	 0.0	 0.0	 0.0	 0.0	 0.0	 0.0	 0.0;
	792	 68.0	 2.71	 23.0	 0.0	 1.07422	 71.8	 1	 68.0	 0.0	 0.0	 0.0	 0.0	 0.0	 0.0	 0.0	 0.0	 0.0	 0.0	 0.0	 0.0;
	792	 0.0	 0.0	 23.0	 0.0	 1.07422	 71.8	 0	 68.0	 0.0	 0.0	 0.0	 0.0	 0.0	 0.0	 0.0	 0.0	 0.0	 0.0	 0.0	 0.0;
	792	 0.0	 0.0	 11.0	 0.0	 1.07422	 23.7	 0	 21.0	 0.0	 0.0	 0.0	 0.0	 0.0	 0.0	 0.0	 0.0	 0.0	 0.0	 0.0	 0.0;
	792	 0.0	 0.0	 10.0	 0.0	 1.07422	 23.3	 0	 21.0	 0.0	 0.0	 0.0	 0.0	 0.0	 0.0	 0.0	 0.0	 0.0	 0.0	 0.0	 0.0;
	803	 0.0	 -0.002	 10.0	 -0.002	 1.08877	 55.9	 1	 55.0	 0.0	 0.0	 0.0	 0.0	 0.0	 0.0	 0.0	 0.0	 0.0	 0.0	 0.0	 0.0;
	804	 0.0	 10.0	 10.0	 0.0	 1.06988	 120.4	 1	 120.0	 0.0	 0.0	 0.0	 0.0	 0.0	 0.0	 0.0	 0.0	 0.0	 0.0	 0.0	 0.0;
	809	 0.0	 0.0	 0.0	 0.0	 1.08007	 3.3	 0	 0.0	 0.0	 0.0	 0.0	 0.0	 0.0	 0.0	 0.0	 0.0	 0.0	 0.0	 0.0	 0.0;
	815	 3.36	 0.0	 2.02	 0.0	 1.07886	 3.9	 1	 3.36	 3.36	 0.0	 0.0	 0.0	 0.0	 0.0	 0.0	 0.0	 0.0	 0.0	 0.0	 0.0;
	834	 1.12	 0.0	 0.0	 0.0	 1.07108	 1.5	 1	 1.12	 1.12	 0.0	 0.0	 0.0	 0.0	 0.0	 0.0	 0.0	 0.0	 0.0	 0.0	 0.0;
	840	 30.0	 8.1	 8.1	 0.0	 1.07519	 51.6	 1	 30.0	 30.0	 0.0	 0.0	 0.0	 0.0	 0.0	 0.0	 0.0	 0.0	 0.0	 0.0	 0.0;
	840	 30.0	 8.1	 8.1	 0.0	 1.07519	 51.6	 1	 30.0	 30.0	 0.0	 0.0	 0.0	 0.0	 0.0	 0.0	 0.0	 0.0	 0.0	 0.0	 0.0;
	844	 1.9	 0.45	 0.45	 0.0	 1.10778	 3.5	 1	 1.9	 1.9	 0.0	 0.0	 0.0	 0.0	 0.0	 0.0	 0.0	 0.0	 0.0	 0.0	 0.0;
	848	 3.01	 0.0	 0.0	 0.0	 1.08607	 5.6	 1	 3.01	 3.01	 0.0	 0.0	 0.0	 0.0	 0.0	 0.0	 0.0	 0.0	 0.0	 0.0	 0.0;
	854	 7.0	 1.35	 1.35	 0.0	 1.08659	 14.6	 1	 7.0	 7.0	 0.0	 0.0	 0.0	 0.0	 0.0	 0.0	 0.0	 0.0	 0.0	 0.0	 0.0;
	873	 68.0	 15.691	 41.2	 0.0	 1.09484	 87.7	 1	 68.0	 68.0	 0.0	 0.0	 0.0	 0.0	 0.0	 0.0	 0.0	 0.0	 0.0	 0.0	 0.0;
	876	 0.0	 0.0	 0.0	 0.0	 1.0773	 1.9	 0	 0.0	 0.0	 0.0	 0.0	 0.0	 0.0	 0.0	 0.0	 0.0	 0.0	 0.0	 0.0	 0.0;
	896	 0.0	 0.0	 45.0	 -10.0	 1.09018	 65.8	 0	 0.0	 0.0	 0.0	 0.0	 0.0	 0.0	 0.0	 0.0	 0.0	 0.0	 0.0	 0.0	 0.0;
	896	 0.0	 0.0	 45.0	 -10.0	 1.09018	 71.1	 0	 0.0	 0.0	 0.0	 0.0	 0.0	 0.0	 0.0	 0.0	 0.0	 0.0	 0.0	 0.0	 0.0;
	896	 55.0	 45.0	 45.0	 -10.0	 1.09018	 71.1	 1	 55.0	 55.0	 0.0	 0.0	 0.0	 0.0	 0.0	 0.0	 0.0	 0.0	 0.0	 0.0	 0.0;
	902	 0.111	 0.0	 0.0	 0.0	 1.03935	 0.3	 1	 0.111	 0.111	 0.0	 0.0	 0.0	 0.0	 0.0	 0.0	 0.0	 0.0	 0.0	 0.0	 0.0;
	903	 0.0	 0.0	 0.0	 0.0	 1.03933	 2.5	 0	 0.0	 0.0	 0.0	 0.0	 0.0	 0.0	 0.0	 0.0	 0.0	 0.0	 0.0	 0.0	 0.0;
	952	 2.6	 0.6	 0.6	 0.0	 1.08475	 3.0	 1	 2.6	 2.6	 0.0	 0.0	 0.0	 0.0	 0.0	 0.0	 0.0	 0.0	 0.0	 0.0	 0.0;
	958	 0.0	 0.0	 0.0	 0.0	 1.07384	 2.5	 0	 0.0	 0.0	 0.0	 0.0	 0.0	 0.0	 0.0	 0.0	 0.0	 0.0	 0.0	 0.0	 0.0;
	972	 27.0	 18.069	 32.0	 5.0	 1.11024	 54.0	 1	 27.0	 27.0	 0.0	 0.0	 0.0	 0.0	 0.0	 0.0	 0.0	 0.0	 0.0	 0.0	 0.0;
	972	 0.0	 0.0	 32.0	 5.0	 1.11024	 42.5	 0	 0.0	 0.0	 0.0	 0.0	 0.0	 0.0	 0.0	 0.0	 0.0	 0.0	 0.0	 0.0	 0.0;
	972	 3.0	 3.979	 7.0	 1.0	 1.11024	 11.4	 1	 3.0	 3.0	 0.0	 0.0	 0.0	 0.0	 0.0	 0.0	 0.0	 0.0	 0.0	 0.0	 0.0;
	972	 80.0	 22.067	 110.0	 -40.0	 1.11024	 162.2	 1	 80.0	 80.0	 0.0	 0.0	 0.0	 0.0	 0.0	 0.0	 0.0	 0.0	 0.0	 0.0	 0.0;
	973	 80.0	 33.982	 110.0	 -40.0	 1.10905	 162.2	 1	 80.0	 80.0	 0.0	 0.0	 0.0	 0.0	 0.0	 0.0	 0.0	 0.0	 0.0	 0.0	 0.0;
...
];

%% generator cost data
%	2	startup	shutdown	n	c(n-1)	...	c0
mpc.gencost = [
	2	 0.0	 0.0	 3	   0.000000	 112.780000	   0.000000;
	2	 0.0	 0.0	 3	   0.000000	 112.780000	   0.000000;
	2	 0.0	 0.0	 3	   0.000000	  76.100000	   0.000000;
	2	 0.0	 0.0	 3	   0.000000	  76.100000	   0.000000;
	2	 0.0	 0.0	 3	   0.000000	  76.100000	   0.000000;
	2	 0.0	 0.0	 3	   0.000000	  76.100000	   0.000000;
	2	 0.0	 0.0	 3	   0.000000	  76.100000	   0.000000;
	2	 0.0	 0.0	 3	   0.000000	  76.100000	   0.000000;
	2	 0.0	 0.0	 3	   0.000000	  76.100000	   0.000000;
	2	 0.0	 0.0	 3	   0.000000	  76.100000	   0.000000;
	2	 0.0	 0.0	 3	   0.000000	  76.100000	   0.000000;
	2	 0.0	 0.0	 3	   0.000000	  76.100000	   0.000000;
	2	 0.0	 0.0	 3	   0.000000	  76.100000	   0.000000;
	2	 0.0	 0.0	 3	   0.000000	 102.050000	   0.000000;
	2	 0.0	 0.0	 3	   0.000000	 102.050000	   0.000000;
	2	 0.0	 0.0	 3	   0.000000	 102.050000	   0.000000;
	2	 0.0	 0.0	 3	   0.000000	 102.050000	   0.000000;
	2	 0.0	 0.0	 3	   0.000000	 102.050000	   0.000000;
	2	 0.0	 0.0	 3	   0.000000	 102.050000	   0.000000;
	2	 0.0	 0.0	 3	   0.000000	 102.050000	   0.000000;
	2	 0.0	 0.0	 3	   0.000000	 102.050000	   0.000000;
	2	 0.0	 0.0	 3	   0.000000	 105.350000	   0.000000;
	2	 0.0	 0.0	 3	   0.000000	 105.350000	   0.000000;
	2	 0.0	 0.0	 3	   0.000000	 105.350000	   0.000000;
	2	 0.0	 0.0	 3	   0.000000	 105.350000	   0.000000;
	2	 0.0	 0.0	 3	   0.000000	 105.350000	   0.000000;
	2	 0.0	 0.0	 3	   0.000000	 105.350000	   0.000000;
	2	 0.0	 0.0	 3	   0.000000	 105.350000	   0.000000;
	2	 0.0	 0.0	 3	   0.000000	   0.000000	   0.000000;
	2	 0.0	 0.0	 3	   0.000000	  95.310000	   0.000000;
	2	 0.0	 0.0	 3	   0.000000	  95.310000	   0.000000;
	2	 0.0	 0.0	 3	   0.000000	  95.310000	   0.000000;
	2	 0.0	 0.0	 3	   0.000000	  95.310000	   0.000000;
	2	 0.0	 0.0	 3	   0.000000	  95.310000	   0.000000;
	2	 0.0	 0.0	 3	   0.000000	  90.030000	   0.000000;
	2	 0.0	 0.0	 3	   0.000000	  90.030000	   0.000000;
	2	 0.0	 0.0	 3	   0.000000	  92.780000	   0.000000;
	2	 0.0	 0.0	 3	   0.000000	  92.780000	   0.000000;
	2	 0.0	 0.0	 3	   0.000000	  94.090000	   0.000000;
	2	 0.0	 0.0	 3	   0.000000	  94.090000	   0.000000;
	2	 0.0	 0.0	 3	   0.000000	  97.120000	   0.000000;
	2	 0.0	 0.0	 3	   0.000000	  97.120000	   0.000000;
	2	 0.0	 0.0	 3	   0.000000	  99.520000	   0.000000;
	2	 0.0	 0.0	 3	   0.000000	  91.160000	   0.000000;
	2	 0.0	 0.0	 3	   0.000000	  91.160000	   0.000000;
	2	 0.0	 0.0	 3	   0.000000	  91.160000	   0.000000;
	2	 0.0	 0.0	 3	   0.000000	  91.160000	   0.000000;
	2	 0.0	 0.0	 3	   0.000000	  91.160000	   0.000000;
	2	 0.0	 0.0	 3	   0.000000	   0.010000	   0.000000;
	2	 0.0	 0.0	 3	   0.000000	   0.010000	   0.000000;
	2	 0.0	 0.0	 3	   0.000000	   0.010000	   0.000000;
	2	 0.0	 0.0	 3	   0.000000	   0.010000	   0.000000;
	2	 0.0	 0.0	 3	   0.000000	  92.430000	   0.000000;
	2	 0.0	 0.0	 3	   0.000000	  92.430000	   0.000000;
	2	 0.0	 0.0	 3	   0.000000	  92.430000	   0.000000;
	2	 0.0	 0.0	 3	   0.000000	  96.420000	   0.000000;
	2	 0.0	 0.0	 3	   0.000000	  96.420000	   0.000000;
	2	 0.0	 0.0	 3	   0.000000	  96.420000	   0.000000;
	2	 0.0	 0.0	 3	   0.000000	 116.010000	   0.000000;
	2	 0.0	 0.0	 3	   0.000000	 116.010000	   0.000000;
	2	 0.0	 0.0	 3	   0.000000	 116.010000	   0.000000;
	2	 0.0	 0.0	 3	   0.000000	 116.010000	   0.000000;
	2	 0.0	 0.0	 3	   0.000000	 116.010000	   0.000000;
	2	 0.0	 0.0	 3	   0.000000	 116.010000	   0.000000;
	2	 0.0	 0.0	 3	   0.000000	 116.010000	   0.000000;
	2	 0.0	 0.0	 3	   0.000000	  98.840000	   0.000000;
	2	 0.0	 0.0	 3	   0.000000	  98.840000	   0.000000;
	2	 0.0	 0.0	 3	   0.000000	  98.840000	   0.000000;
	2	 0.0	 0.0	 3	   0.000000	  98.840000	   0.000000;
	2	 0.0	 0.0	 3	   0.000000	  98.840000	   0.000000;
	2	 0.0	 0.0	 3	   0.000000	  98.840000	   0.000000;
	2	 0.0	 0.0	 3	   0.000000	  98.840000	   0.000000;
	2	 0.0	 0.0	 3	   0.000000	  98.840000	   0.000000;
	2	 0.0	 0.0	 3	   0.000000	  98.840000	   0.000000;
	2	 0.0	 0.0	 3	   0.000000	  89.220000	   0.000000;
	2	 0.0	 0.0	 3	   0.000000	  89.220000	   0.000000;
	2	 0.0	 0.0	 3	   0.000000	  89.220000	   0.000000;
	2	 0.0	 0.0	 3	   0.000000	  89.220000	   0.000000;
	2	 0.0	 0.0	 3	   0.000000	   0.010000	   0.000000;
	2	 0.0	 0.0	 3	   0.000000	   0.010000	   0.000000;
	2	 0.0	 0.0	 3	   0.000000	   0.010000	   0.000000;
	2	 0.0	 0.0	 3	   0.000000	   0.010000	   0.000000;
	2	 0.0	 0.0	 3	   0.000000	   0.000000	   0.000000;
	2	 0.0	 0.0	 3	   0.000000	   0.000000	   0.000000;
	2	 0.0	 0.0	 3	   0.000000	   0.000000	   0.000000;
	2	 0.0	 0.0	 3	   0.000000	   0.000000	   0.000000;
	2	 0.0	 0.0	 3	   0.000000	   0.000000	   0.000000;
	2	 0.0	 0.0	 3	   0.000000	  76.100000	   0.000000;
	2	 0.0	 0.0	 3	   0.000000	   0.000000	   0.000000;
	2	 0.0	 0.0	 3	   0.000000	   0.000000	   0.000000;
	2	 0.0	 0.0	 3	   0.000000	   0.000000	   0.000000;
	2	 0.0	 0.0	 3	   0.000000	   0.000000	   0.000000;
	2	 0.0	 0.0	 3	   0.000000	   0.000000	   0.000000;
	2	 0.0	 0.0	 3	   0.000000	   0.000000	   0.000000;
	2	 0.0	 0.0	 3	   0.000000	   0.000000	   0.000000;
	2	 0.0	 0.0	 3	   0.000000	   0.000000	   0.000000;
	2	 0.0	 0.0	 3	   0.000000	   0.000000	   0.000000;
	2	 0.0	 0.0	 3	   0.000000	   0.000000	   0.000000;
	2	 0.0	 0.0	 3	   0.000000	   0.000000	   0.000000;
	2	 0.0	 0.0	 3	   0.000000	   0.000000	   0.000000;
	2	 0.0	 0.0	 3	   0.000000	   0.000000	   0.000000;
	2	 0.0	 0.0	 3	   0.000000	   0.000000	   0.000000;
	2	 0.0	 0.0	 3	   0.000000	   0.000000	   0.000000;
	2	 0.0	 0.0	 3	   0.000000	   0.000000	   0.000000;
	2	 0.0	 0.0	 3	   0.000000	   0.000000	   0.000000;
	2	 0.0	 0.0	 3	   0.000000	   0.000000	   0.000000;
	2	 0.0	 0.0	 3	   0.000000	   0.000000	   0.000000;
	2	 0.0	 0.0	 3	   0.000000	   0.000000	   0.000000;
	2	 0.0	 0.0	 3	   0.000000	 112.780000	   0.000000;
	2	 0.0	 0.0	 3	   0.000000	 112.780000	   0.000000;
	2	 0.0	 0.0	 3	   0.000000	 112.780000	   0.000000;
	2	 0.0	 0.0	 3	   0.000000	   0.000000	   0.000000;
	2	 0.0	 0.0	 3	   0.000000	   0.000000	   0.000000;
	2	 0.0	 0.0	 3	   0.000000	   0.000000	   0.000000;
	2	 0.0	 0.0	 3	   0.000000	   0.000000	   0.000000;
	2	 0.0	 0.0	 3	   0.000000	   0.000000	   0.000000;
	2	 0.0	 0.0	 3	   0.000000	   0.000000	   0.000000;
	2	 0.0	 0.0	 3	   0.000000	   0.000000	   0.000000;
	2	 0.0	 0.0	 3	   0.000000	   0.000000	   0.000000;
	2	 0.0	 0.0	 3	   0.000000	   0.000000	   0.000000;
	2	 0.0	 0.0	 3	   0.000000	   0.000000	   0.000000;
	2	 0.0	 0.0	 3	   0.000000	   0.000000	   0.000000;
	2	 0.0	 0.0	 3	   0.000000	   0.000000	   0.000000;
	2	 0.0	 0.0	 3	   0.000000	   0.000000	   0.000000;
	2	 0.0	 0.0	 3	   0.000000	   0.000000	   0.000000;
	2	 0.0	 0.0	 3	   0.000000	   0.000000	   0.000000;
	2	 0.0	 0.0	 3	   0.000000	   0.000000	   0.000000;
	2	 0.0	 0.0	 3	   0.000000	   0.000000	   0.000000;
	2	 0.0	 0.0	 3	   0.000000	   0.000000	   0.000000;
	2	 0.0	 0.0	 3	   0.000000	   0.000000	   0.000000;
	2	 0.0	 0.0	 3	   0.000000	   0.000000	   0.000000;
	2	 0.0	 0.0	 3	   0.000000	   0.000000	   0.000000;
	2	 0.0	 0.0	 3	   0.000000	   0.000000	   0.000000;
	2	 0.0	 0.0	 3	   0.000000	   0.000000	   0.000000;
	2	 0.0	 0.0	 3	   0.000000	   0.000000	   0.000000;
	2	 0.0	 0.0	 3	   0.000000	   0.000000	   0.000000;
	2	 0.0	 0.0	 3	   0.000000	   0.000000	   0.000000;
	2	 0.0	 0.0	 3	   0.000000	   0.000000	   0.000000;
	2	 0.0	 0.0	 3	   0.000000	   0.000000	   0.000000;
	2	 0.0	 0.0	 3	   0.000000	   0.000000	   0.000000;
	2	 0.0	 0.0	 3	   0.000000	   0.000000	   0.000000;
	2	 0.0	 0.0	 3	   0.000000	   0.000000	   0.000000;
	2	 0.0	 0.0	 3	   0.000000	   0.000000	   0.000000;
	2	 0.0	 0.0	 3	   0.000000	   0.000000	   0.000000;
	2	 0.0	 0.0	 3	   0.000000	   0.000000	   0.000000;
	2	 0.0	 0.0	 3	   0.000000	   0.000000	   0.000000;
	2	 0.0	 0.0	 3	   0.000000	   0.000000	   0.000000;
	2	 0.0	 0.0	 3	   0.000000	   0.000000	   0.000000;
	2	 0.0	 0.0	 3	   0.000000	   0.000000	   0.000000;
	2	 0.0	 0.0	 3	   0.000000	 102.050000	   0.000000;
	2	 0.0	 0.0	 3	   0.000000	 102.050000	   0.000000;
	2	 0.0	 0.0	 3	   0.000000	   0.000000	   0.000000;
	2	 0.0	 0.0	 3	   0.000000	   0.000000	   0.000000;
	2	 0.0	 0.0	 3	   0.000000	   0.000000	   0.000000;
	2	 0.0	 0.0	 3	   0.000000	   0.000000	   0.000000;
	2	 0.0	 0.0	 3	   0.000000	   0.000000	   0.000000;
	2	 0.0	 0.0	 3	   0.000000	   0.000000	   0.000000;
	2	 0.0	 0.0	 3	   0.000000	   0.000000	   0.000000;
	2	 0.0	 0.0	 3	   0.000000	   0.000000	   0.000000;
	2	 0.0	 0.0	 3	   0.000000	   0.000000	   0.000000;
	2	 0.0	 0.0	 3	   0.000000	   0.000000	   0.000000;
	2	 0.0	 0.0	 3	   0.000000	   0.000000	   0.000000;
	2	 0.0	 0.0	 3	   0.000000	   0.000000	   0.000000;
	2	 0.0	 0.0	 3	   0.000000	 105.350000	   0.000000;
	2	 0.0	 0.0	 3	   0.000000	   0.000000	   0.000000;
	2	 0.0	 0.0	 3	   0.000000	   0.000000	   0.000000;
	2	 0.0	 0.0	 3	   0.000000	   0.000000	   0.000000;
	2	 0.0	 0.0	 3	   0.000000	   0.000000	   0.000000;
	2	 0.0	 0.0	 3	   0.000000	   0.000000	   0.000000;
	2	 0.0	 0.0	 3	   0.000000	   0.000000	   0.000000;
	2	 0.0	 0.0	 3	   0.000000	   0.000000	   0.000000;
	2	 0.0	 0.0	 3	   0.000000	   0.000000	   0.000000;
	2	 0.0	 0.0	 3	   0.000000	   0.010000	   0.000000;
	2	 0.0	 0.0	 3	   0.000000	   0.010000	   0.000000;
	2	 0.0	 0.0	 3	   0.000000	   0.010000	   0.000000;
	2	 0.0	 0.0	 3	   0.000000	   0.010000	   0.000000;
	2	 0.0	 0.0	 3	   0.000000	 111.630000	   0.000000;
	2	 0.0	 0.0	 3	   0.000000	 111.630000	   0.000000;
	2	 0.0	 0.0	 3	   0.000000	   0.000000	   0.000000;
	2	 0.0	 0.0	 3	   0.000000	   0.000000	   0.000000;
	2	 0.0	 0.0	 3	   0.000000	   0.000000	   0.000000;
	2	 0.0	 0.0	 3	   0.000000	   0.000000	   0.000000;
	2	 0.0	 0.0	 3	   0.000000	   0.000000	   0.000000;
	2	 0.0	 0.0	 3	   0.000000	   0.000000	   0.000000;
	2	 0.0	 0.0	 3	   0.000000	   0.000000	   0.000000;
	2	 0.0	 0.0	 3	   0.000000	   0.000000	   0.000000;
	2	 0.0	 0.0	 3	   0.000000	   0.000000	   0.000000;
	2	 0.0	 0.0	 3	   0.000000	   0.000000	   0.000000;
	2	 0.0	 0.0	 3	   0.000000	   0.000000	   0.000000;
	2	 0.0	 0.0	 3	   0.000000	   0.000000	   0.000000;
	2	 0.0	 0.0	 3	   0.000000	   0.000000	   0.000000;
	2	 0.0	 0.0	 3	   0.000000	   0.000000	   0.000000;
	2	 0.0	 0.0	 3	   0.000000	   0.000000	   0.000000;
	2	 0.0	 0.0	 3	   0.000000	   0.000000	   0.000000;
	2	 0.0	 0.0	 3	   0.000000	   0.000000	   0.000000;
	2	 0.0	 0.0	 3	   0.000000	   0.000000	   0.000000;
	2	 0.0	 0.0	 3	   0.000000	   0.000000	   0.000000;
	2	 0.0	 0.0	 3	   0.000000	   0.000000	   0.000000;
	2	 0.0	 0.0	 3	   0.000000	   0.000000	   0.000000;
	2	 0.0	 0.0	 3	   0.000000	   0.000000	   0.000000;
...
];

%% branch data
%	fbus	tbus	r	x	b	rateA	rateB	rateC	ratio	angle	status	angmin	angmax
mpc.branch = [
	7	 8	 0.00064	 0.0305	 0.0	 400.0	 400.0	 400.0	 1.0435	 -0.6	 1	 -30.0	 30.0;
	26	 28	 0.00036	 0.02519	 0.0	 500.0	 500.0	 500.0	 1.0565	 0.0	 1	 -30.0	 30.0;
	27	 29	 0.00036	 0.02519	 0.0	 500.0	 500.0	 500.0	 1.0566	 0.0	 1	 -30.0	 30.0;
	40	 42	 0.00034	 0.02097	 0.0	 500.0	 500.0	 500.0	 1.068	 0.0	 1	 -30.0	 30.0;
	43	 46	 0.00034	 0.02097	 0.0	 500.0	 500.0	 500.0	 1.0569	 0.0	 1	 -30.0	 30.0;
	55	 57	 0.00081	 0.03	 0.0	 400.0	 400.0	 400.0	 1.0765	 0.0	 1	 -30.0	 30.0;
	90	 92	 0.00075	 0.02444	 -0.00832	 330.0	 330.0	 330.0	 1.0631	 0.0	 1	 -30.0	 30.0;
	91	 93	 0.00075	 0.02469	 -0.008	 330.0	 330.0	 330.0	 1.0632	 0.0	 1	 -30.0	 30.0;
	125	 128	 0.0005	 0.02875	 -0.016	 400.0	 400.0	 400.0	 1.0639	 0.0	 1	 -30.0	 30.0;
	149	 150	 0.00064	 0.0305	 0.0	 400.0	 400.0	 400.0	 1.0826	 0.0	 1	 -30.0	 30.0;
	155	 158	 0.000232	 0.023	 0.0	 500.0	 500.0	 500.0	 1.089	 0.0	 1	 -30.0	 30.0;
	156	 159	 0.000232	 0.023	 0.0	 500.0	 500.0	 500.0	 1.0893	 0.0	 1	 -30.0	 30.0;
	170	 172	 0.00035	 0.02375	 0.0	 500.0	 500.0	 500.0	 1.1049	 0.0	 1	 -30.0	 30.0;
	183	 184	 0.00059	 0.03093	 0.0	 400.0	 400.0	 400.0	 1.091	 0.0	 1	 -30.0	 30.0;
	190	 192	 0.0004	 0.03	 0.0	 500.0	 500.0	 500.0	 1.1321	 0.0	 1	 -30.0	 30.0;
	2735	 158	 0.00031	 0.00338	 0.0992	 1386.0	 1386.0	 1386.0	 0.0	 0.0	 1	 -30.0	 30.0;
	2735	 159	 0.00031	 0.00338	 0.0992	 1386.0	 1386.0	 1386.0	 0.0	 0.0	 1	 -30.0	 30.0;
	2736	 68	 0.014341	 0.083531	 0.126034	 415.0	 415.0	 415.0	 0.0	 0.0	 1	 -30.0	 30.0;
	2734	 76	 0.01219	 0.070659	 0.117418	 412.0	 412.0	 412.0	 0.0	 0.0	 1	 -30.0	 30.0;
	2734	 105	 0.011781	 0.07087	 0.116838	 412.0	 412.0	 412.0	 0.0	 0.0	 1	 -30.0	 30.0;
	2739	 200	 9e-06	 9.4e-05	 0.0	 924.0	 924.0	 924.0	 0.0	 0.0	 1	 -30.0	 30.0;
	128	 2732	 0.0015	 0.01469	 0.40384	 1386.0	 1386.0	 1386.0	 0.0	 0.0	 0	 -30.0	 30.0;
	127	 2733	 0.001419	 0.014675	 0.4896	 1386.0	 1386.0	 1386.0	 0.0	 0.0	 1	 -30.0	 30.0;
	2737	 148	 0.001651	 0.015909	 0.046948	 373.0	 373.0	 373.0	 0.0	 0.0	 1	 -30.0	 30.0;
	2737	 149	 0.001651	 0.015909	 0.046948	 373.0	 373.0	 373.0	 0.0	 0.0	 1	 -30.0	 30.0;
	2738	 48	 0.00188	 0.02287	 0.6432	 831.0	 831.0	 831.0	 0.0	 0.0	 1	 -30.0	 30.0;
	2738	 49	 0.00188	 0.02287	 0.6432	 831.0	 831.0	 831.0	 0.0	 0.0	 1	 -30.0	 30.0;
	82	 2732	 0.003519	 0.039313	 1.0336	 1621.0	 1621.0	 1621.0	 0.0	 0.0	 1	 -30.0	 30.0;
	43	 23	 0.01345	 0.081141	 0.141134	 339.0	 339.0	 339.0	 0.0	 0.0	 1	 -30.0	 30.0;
	26	 90	 0.009091	 0.062401	 0.111417	 457.0	 457.0	 457.0	 0.0	 0.0	 1	 -30.0	 30.0;
	27	 91	 0.00868	 0.06405	 0.096994	 457.0	 457.0	 457.0	 0.0	 0.0	 1	 -30.0	 30.0;
	146	 30	 0.016961	 0.123659	 0.196988	 373.0	 373.0	 373.0	 0.0	 0.0	 1	 -30.0	 30.0;
	135	 34	 0.00512	 0.02618	 0.029621	 335.0	 335.0	 335.0	 0.0	 0.0	 1	 -30.0	 30.0;
	134	 20	 0.01068	 0.061961	 0.094961	 415.0	 415.0	 415.0	 0.0	 0.0	 1	 -30.0	 30.0;
	165	 21	 0.014651	 0.105891	 0.170852	 373.0	 373.0	 373.0	 0.0	 0.0	 1	 -30.0	 30.0;
	41	 109	 0.01488	 0.08161	 0.114805	 347.0	 347.0	 347.0	 0.0	 0.0	 1	 -30.0	 30.0;
	40	 91	 0.011159	 0.07231	 0.103673	 362.0	 362.0	 362.0	 0.0	 0.0	 1	 -30.0	 30.0;
	179	 83	 0.008616	 0.077645	 0.122239	 373.0	 373.0	 373.0	 0.0	 0.0	 1	 -30.0	 30.0;
	203	 166	 0.01176	 0.068289	 0.102802	 362.0	 362.0	 362.0	 0.0	 0.0	 1	 -30.0	 30.0;
	194	 166	 0.016818	 0.089091	 0.129935	 400.0	 400.0	 400.0	 0.0	 0.0	 1	 -30.0	 30.0;
	193	 165	 0.013843	 0.087025	 0.134842	 427.0	 427.0	 427.0	 0.0	 0.0	 1	 -30.0	 30.0;
	207	 168	 0.01676	 0.097169	 0.148685	 274.0	 274.0	 274.0	 0.0	 0.0	 1	 -30.0	 30.0;
	43	 12	 0.01269	 0.074979	 0.130196	 377.0	 377.0	 377.0	 0.0	 0.0	 1	 -30.0	 30.0;
	198	 18	 0.014091	 0.10413	 0.15972	 373.0	 373.0	 373.0	 0.0	 0.0	 1	 -30.0	 30.0;
	100	 55	 0.003719	 0.0438	 0.100962	 457.0	 457.0	 457.0	 0.0	 0.0	 1	 -30.0	 30.0;
	163	 82	 0.00194	 0.02056	 0.51584	 1316.0	 1316.0	 1316.0	 0.0	 0.0	 1	 -30.0	 30.0;
	45	 9	 0.0015	 0.01506	 0.4032	 1386.0	 1386.0	 1386.0	 0.0	 0.0	 1	 -30.0	 30.0;
	185	 151	 0.00294	 0.03463	 0.9216	 693.0	 693.0	 693.0	 0.0	 0.0	 1	 -30.0	 30.0;
	121	 57	 0.00169	 0.01994	 0.50624	 831.0	 831.0	 831.0	 0.0	 0.0	 1	 -30.0	 30.0;
	29	 93	 0.00137	 0.01625	 0.41184	 1386.0	 1386.0	 1386.0	 0.0	 0.0	 1	 -30.0	 30.0;
	28	 123	 0.00231	 0.02769	 0.70144	 1386.0	 1386.0	 1386.0	 0.0	 0.0	 1	 -30.0	 30.0;
	25	 192	 0.00207	 0.02474	 0.664	 831.0	 831.0	 831.0	 0.0	 0.0	 1	 -30.0	 30.0;
	120	 64	 0.0015	 0.01788	 0.4512	 831.0	 831.0	 831.0	 0.0	 0.0	 1	 -30.0	 30.0;
	122	 65	 0.00469	 0.05544	 1.4048	 831.0	 831.0	 831.0	 0.0	 0.0	 1	 -30.0	 30.0;
	82	 31	 0.00331	 0.03425	 0.85888	 1150.0	 1150.0	 1150.0	 0.0	 0.0	 1	 -30.0	 30.0;
	92	 28	 0.00219	 0.02369	 0.59584	 1316.0	 1316.0	 1316.0	 0.0	 0.0	 1	 -30.0	 30.0;
	11	 4	 0.01674	 0.09711	 0.144232	 461.0	 461.0	 461.0	 0.0	 0.0	 1	 -30.0	 30.0;
	30	 12	 0.0057	 0.0407	 0.06021	 373.0	 373.0	 373.0	 0.0	 0.0	 1	 -30.0	 30.0;
	33	 4	 0.004419	 0.032229	 0.049852	 392.0	 392.0	 392.0	 0.0	 0.0	 1	 -30.0	 30.0;
	17	 7	 0.014591	 0.11219	 0.165528	 427.0	 427.0	 427.0	 0.0	 0.0	 1	 -30.0	 30.0;
	22	 10	 0.01211	 0.087419	 0.140166	 373.0	 373.0	 373.0	 0.0	 0.0	 1	 -30.0	 30.0;
	26	 5	 0.009773	 0.050516	 0.088959	 377.0	 377.0	 377.0	 0.0	 0.0	 1	 -30.0	 30.0;
	17	 3	 0.01068	 0.07895	 0.122597	 274.0	 274.0	 274.0	 0.0	 0.0	 1	 -30.0	 30.0;
	26	 19	 0.0057	 0.039521	 0.075533	 480.0	 480.0	 480.0	 0.0	 0.0	 1	 -30.0	 30.0;
	27	 20	 0.0057	 0.039521	 0.075533	 480.0	 480.0	 480.0	 0.0	 0.0	 1	 -30.0	 30.0;
	10	 6	 0.00525	 0.03988	 0.061952	 373.0	 373.0	 373.0	 0.0	 0.0	 1	 -30.0	 30.0;
	32	 10	 0.00093	 0.00651	 0.011132	 373.0	 373.0	 373.0	 0.0	 0.0	 1	 -30.0	 30.0;
	23	 11	 0.00205	 0.01326	 0.022429	 415.0	 415.0	 415.0	 0.0	 0.0	 1	 -30.0	 30.0;
	34	 5	 0.007831	 0.043	 0.04962	 335.0	 335.0	 335.0	 0.0	 0.0	 1	 -30.0	 30.0;
	19	 4	 0.00293	 0.01599	 0.024781	 362.0	 362.0	 362.0	 0.0	 0.0	 1	 -30.0	 30.0;
	26	 1	 0.00155	 0.01169	 0.018198	 747.0	 747.0	 747.0	 0.0	 0.0	 1	 -30.0	 30.0;
	27	 2	 0.00155	 0.01169	 0.018198	 747.0	 747.0	 747.0	 0.0	 0.0	 1	 -30.0	 30.0;
	27	 33	 0.003841	 0.028531	 0.045883	 392.0	 392.0	 392.0	 0.0	 0.0	 1	 -30.0	 30.0;
	24	 33	 2e-06	 2.1e-05	 0.0	 392.0	 392.0	 392.0	 0.0	 0.0	 1	 -30.0	 30.0;
	25	 9	 0.00298	 0.03417	 0.93504	 831.0	 831.0	 831.0	 0.0	 0.0	 1	 -30.0	 30.0;
	28	 25	 0.00358	 0.04262	 1.0944	 1386.0	 1386.0	 1386.0	 0.0	 0.0	 1	 -30.0	 30.0;
...